4
Atoms
Pb 0.134939 0.094135 0.152826
Cl 2.767340 0.232853 0.077164
Cl -0.138816 2.703617 -0.100291
Cl 0.070357 0.210233 2.786018
12
Atoms
C 2.856348 3.465525 2.882101
N 2.065567 2.498566 2.094128
H 3.535110 2.922596 3.560587
H 2.178424 4.101417 3.475260
H 3.449516 4.098951 2.201873
H 1.464495 1.844420 2.661628
H 2.631700 1.844694 1.490830
H 1.384889 2.928154 1.415175
Pb 0.134939 0.094135 0.152826
Cl 2.767340 0.232853 0.077164
Cl -0.138816 2.703617 -0.100291
Cl 0.070357 0.210233 2.786018
8
Atoms
C 2.856348 3.465525 2.882101
N 2.065567 2.498566 2.094128
H 3.535110 2.922596 3.560587
H 2.178424 4.101417 3.475260
H 3.449516 4.098951 2.201873
H 1.464495 1.844420 2.661628
H 2.631700 1.844694 1.490830
H 1.384889 2.928154 1.415175
4
Atoms
Pb 0.731980 1.176898 0.720745
Cl -1.317613 0.212201 -0.302100
Cl 2.353441 -0.552307 -0.540838
Cl 0.876139 -0.320770 2.814951
4
Atoms
Pb -0.010801 0.495699 0.541808
Cl 1.921637 1.024997 -1.212887
Cl 0.735449 2.588076 1.967024
Cl 1.409022 -1.343528 1.857616
4
Atoms
Pb 0.463013 1.075331 0.245468
Cl 1.119300 -1.333685 -0.676613
Cl 2.699989 1.394991 1.527440
Cl -0.825907 -0.077669 2.386786
4
Atoms
Pb 0.991281 0.608295 1.102624
Cl -1.440286 1.513905 1.086147
Cl 1.935395 2.341889 -0.528762
Cl 0.466430 -1.240870 -0.790812
4
Atoms
Pb 1.237787 0.436076 0.525718
Cl 0.624948 1.862072 2.671866
Cl -0.709701 1.981995 -0.931769
Cl -0.230618 -1.514379 0.829462
12
Atoms
C 0.096474 -0.716292 4.531000
N 0.231616 0.064440 3.140127
H -0.789083 -0.933642 4.534426
H 0.343881 0.193186 5.239730
H 0.897272 -1.452921 4.662806
H -0.379482 0.726884 2.924186
H 0.334399 -0.812995 2.460542
H 1.422091 0.231497 3.023115
Pb 1.159684 1.306647 -0.170371
Cl 0.337449 -1.276760 0.261063
Cl 2.772332 1.478666 1.893988
Cl -0.904401 2.196476 1.327418
12
Atoms
C 1.605334 3.687040 3.787410
N 1.500207 2.588288 2.870242
H 2.396984 2.966275 4.560600
H 0.893175 3.864613 4.577407
H 1.948032 4.532139 3.428952
H 1.228624 1.664954 2.973928
H 2.132969 2.361285 1.991620
H 0.767604 2.938455 2.160392
Pb 0.674559 0.371817 0.142262
Cl 2.971836 1.180811 0.466278
Cl -0.639570 2.568315 0.285464
Cl 0.268004 -0.218758 2.778538
12
Atoms
C 4.176494 0.901048 -1.695503
N 2.792752 0.825949 -0.818337
H 3.704223 0.548443 -2.868208
H 4.766079 0.125593 -1.414071
H 4.648793 1.800167 -1.574359
H 2.471560 0.064240 -0.720910
H 2.041827 1.557278 -0.947817
H 3.194069 1.224779 0.234457
Pb 0.116526 1.024603 1.447048
Cl 0.136965 2.285149 -0.718361
Cl 2.598135 1.637238 2.338091
Cl 0.664764 -1.224506 0.337154
12
Atoms
C 1.868019 -3.041893 1.483446
N 1.337732 -1.651509 1.122565
H 1.026127 -3.557560 0.994236
H 2.072624 -3.251676 2.578565
H 2.829455 -3.074504 0.795765
H 0.644108 -1.403107 1.619319
H 1.419657 -1.246369 -0.055642
H 2.125331 -0.680699 1.556679
Pb 0.538309 2.021341 0.702493
Cl 0.813584 0.142427 -1.222311
Cl 2.619874 1.094817 1.851480
Cl -0.766154 0.252026 2.099847
12
Atoms
C 0.927726 5.043666 0.797584
N 0.982841 3.627546 0.857440
H 0.968809 5.261434 1.919629
H -0.039670 5.313612 0.470178
H 1.869033 5.432720 0.145132
H 0.263484 3.210128 1.290268
H 1.868083 3.044406 1.214251
H 0.722388 3.138606 -0.128218
Pb 0.781216 -0.236509 0.954810
Cl 2.745471 1.212682 1.726594
Cl 0.581761 1.437323 -1.426337
Cl -1.082038 1.480778 2.078883
8
Atoms
C 2.472930 2.849107 3.300635
N 2.737208 3.174556 1.924244
H 1.800306 3.346420 3.678642
H 3.545721 2.648528 4.044928
H 2.098810 1.813162 3.242794
H 3.285159 4.036245 2.009453
H 2.202186 3.308532 1.169346
H 3.580523 2.669725 1.375191
8
Atoms
C 2.337940 2.490434 2.447141
N 2.878578 3.629913 2.822767
H 1.987199 2.335300 1.588529
H 1.552518 2.224525 3.174536
H 3.003738 1.664284 2.856686
H 2.212959 4.539715 2.819262
H 3.717722 3.911203 2.376784
H 3.110118 3.795985 4.041010
8
Atoms
C 3.171602 3.010054 3.223237
N 1.976135 3.114745 2.219223
H 3.205236 1.970631 3.635927
H 2.749562 3.755395 4.061379
H 4.176889 3.570406 2.723750
H 1.223617 2.708209 2.403323
H 2.298582 2.458258 1.317527
H 2.000885 4.197344 1.708160
8
Atoms
C 1.938191 2.474089 2.753833
N 3.061647 3.459688 2.464362
H 1.341191 2.512463 3.667142
H 2.133061 1.505335 2.779640
H 0.953064 2.542430 2.062168
H 3.683194 3.406932 3.227445
H 2.619472 4.383397 2.628502
H 3.327346 3.386304 1.441146
8
Atoms
C 3.079590 2.566940 2.294199
N 2.153424 3.534536 2.692481
H 3.990243 2.244594 2.952942
H 3.978874 3.305722 1.632433
H 2.713600 1.907674 1.757343
H 2.595181 4.439776 3.244443
H 1.497910 2.980404 3.466141
H 1.649006 4.114316 2.031909
12
Atoms
C 2.973356 3.061263 3.165235
N 2.065809 2.924503 1.924403
H 3.510430 2.152143 3.209166
H 2.261951 3.140555 4.028948
H 3.627276 3.923051 3.078073
H 1.372294 2.138030 1.881011
H 2.637733 2.831513 1.078458
H 1.424772 3.801416 1.735677
Pb -0.330681 0.157724 0.317363
Cl 1.229657 -1.608510 -0.667950
Cl 0.611809 2.186020 -1.043206
Cl 1.235020 0.573374 2.435642
12
Atoms
C 2.923088 3.332920 3.047464
N 2.024578 2.680589 2.035968
H 3.880724 2.837627 3.077077
H 2.452672 3.404934 4.031586
H 3.141488 4.403588 2.648995
H 1.885277 1.682682 2.317089
H 2.429793 2.596669 1.052946
H 1.136253 3.100517 1.876257
Pb 0.150463 -0.115744 -0.221069
Cl 1.966030 -0.648021 1.683008
Cl 0.836005 2.442532 -0.332236
Cl -1.707533 0.362256 1.473420
12
Atoms
C 2.455980 3.566373 3.075537
N 2.489220 2.523843 1.958238
H 2.978272 3.129893 4.002231
H 1.355709 3.773089 3.288880
H 2.915858 4.457971 2.781569
H 2.032723 1.637983 2.254713
H 3.491907 2.197029 1.705021
H 2.111432 2.785463 1.084918
Pb 0.383202 -0.366747 0.056028
Cl 1.675130 1.736292 -0.843464
Cl -1.982668 0.922356 -0.039745
Cl 0.747772 0.274920 2.563120
12
Atoms
C 3.126479 3.301267 2.460764
N 1.888926 2.671022 2.571095
H 3.791791 2.947358 3.254071
H 3.084662 4.433110 2.596768
H 3.688615 3.119886 1.461842
H 1.344997 2.765213 3.399577
H 1.873279 1.670074 2.386797
H 1.140922 2.976531 1.784529
Pb -0.302726 -0.016334 0.409925
Cl 1.342739 -1.320569 -1.122501
Cl 0.028621 2.239291 -0.954083
Cl 1.634599 0.714518 2.142421
12
Atoms
C 2.653739 3.200504 3.210431
N 2.327936 2.764929 1.858689
H 3.509263 2.599190 3.627125
H 1.840859 3.110609 3.945660
H 2.964540 4.310278 3.152531
H 1.955483 1.742618 1.807591
H 3.129367 2.755663 1.206951
H 1.500673 3.289523 1.401957
Pb 0.326175 -0.210944 -0.134283
Cl 2.189836 0.456976 1.532355
Cl -0.289385 2.324402 -0.712533
Cl -1.524898 -0.355952 1.757409
12
Atoms
C 2.361649 3.716342 2.552370
N 2.622546 2.332818 2.504371
H 3.009908 4.209285 3.264904
H 1.312258 3.965660 2.928744
H 2.415936 4.220104 1.560135
H 2.528924 1.777862 3.417672
H 3.548956 2.035770 2.175434
H 1.959005 1.683271 1.835043
Pb -0.382721 -0.559437 -0.231120
Cl 2.159288 -0.865429 0.377351
Cl 0.047232 1.666596 -1.547123
Cl -0.927745 0.714216 2.067286
12
Atoms
C 2.968782 2.993120 3.143620
N 2.099571 3.028170 1.939171
H 3.123611 1.868853 3.424078
H 2.483249 3.428444 3.984245
H 3.886950 3.426124 2.919381
H 1.108863 2.691167 2.036558
H 2.474123 2.576182 1.063919
H 1.861127 4.005476 1.653754
Pb -0.041055 -0.379967 -0.531001
Cl 1.761449 -0.847706 1.375165
Cl 0.359356 2.201824 -0.397609
Cl -2.098475 -0.323455 1.114406
12
Atoms
C 2.243474 3.534648 3.066367
N 2.683377 2.508585 2.026296
H 2.674747 3.214786 4.061261
H 1.070633 3.453205 3.076324
H 2.488796 4.535563 2.834614
H 2.454315 1.523124 2.193442
H 3.787529 2.551011 1.903603
H 2.305530 2.721022 1.031896
Pb -0.453242 -0.363518 -0.399233
Cl 2.233487 -0.748481 -0.465606
Cl -0.186942 2.259098 -0.368952
Cl -0.464307 -0.515902 2.285145
12
Atoms
C 3.220424 3.008365 2.703954
N 1.764260 2.963888 2.337179
H 3.618053 2.003394 3.108836
H 3.419256 3.811616 3.316964
H 3.770814 3.199972 1.760813
H 1.207490 2.773149 3.208010
H 1.552537 2.181369 1.730933
H 1.431837 3.778684 1.953332
Pb -0.397256 -0.616509 -0.120211
Cl 2.078325 -0.303171 -1.148252
Cl -1.070314 1.954400 -0.588662
Cl 0.382958 -0.043502 2.328870
12
Atoms
C 3.029783 3.353563 2.970937
N 2.051058 2.682785 2.045972
H 3.999554 2.863110 2.731895
H 2.761320 3.194277 4.045090
H 3.070630 4.379926 2.792625
H 1.883326 1.628402 2.209192
H 2.202801 2.763500 1.115413
H 1.065517 3.096078 2.238976
Pb -0.261050 -0.152387 -0.587675
Cl 2.271686 0.425885 -0.129488
Cl -1.102034 1.554548 1.256373
Cl -0.249949 -2.136772 1.253246
12
Atoms
C 3.153710 2.973285 2.942441
N 1.919272 3.044035 2.107927
H 3.275415 1.952883 3.305564
H 3.096337 3.671677 3.761249
H 3.977804 3.264153 2.300008
H 1.037104 2.789613 2.664296
H 1.856892 2.392724 1.296699
H 1.669146 3.993805 1.737271
Pb -0.727312 -0.320578 -0.683467
Cl 1.818634 -0.866721 -1.237845
Cl -0.055667 1.477742 1.181356
Cl -0.924474 -2.229751 1.087110
12
Atoms
C 2.889074 3.487552 2.999367
N 2.101587 2.591601 2.121788
H 3.840646 2.953739 3.270642
H 2.325676 3.742385 3.842985
H 3.157912 4.450435 2.403303
H 1.821839 1.721387 2.504690
H 2.612621 2.333112 1.208347
H 1.187531 2.965417 1.798561
Pb -0.679585 -0.551340 -0.697998
Cl 1.940591 -0.208867 -1.155374
Cl -0.878087 1.607796 0.632359
Cl -0.278632 -2.032989 1.376405
12
Atoms
C 2.735253 3.392679 3.140751
N 2.247047 2.657184 1.926766
H 3.758637 3.054865 3.504387
H 1.977840 3.187699 3.986247
H 2.736675 4.532988 2.932830
H 2.285762 1.597687 2.040502
H 2.865406 2.760876 1.125199
H 1.315037 2.964860 1.582784
Pb -0.793633 -0.763169 -0.506249
Cl 1.499519 -1.902482 0.296162
Cl 0.446154 1.119103 -1.848444
Cl -0.855246 0.807807 1.642695
12
Atoms
C 3.142935 3.062115 2.924705
N 1.881364 2.889819 2.133440
H 3.540576 2.114563 3.351032
H 3.029288 3.831973 3.742988
H 3.944314 3.431437 2.245539
H 1.070305 2.590856 2.745156
H 1.962502 2.136678 1.398673
H 1.508624 3.795958 1.738733
Pb -0.057268 -0.910554 -0.562967
Cl 1.347730 1.250484 -0.473408
Cl -2.278673 0.328427 -1.195062
Cl -0.607173 -0.913345 2.015770
12
Atoms
C 2.329025 3.667986 2.930979
N 2.622769 2.409999 2.131373
H 2.981535 3.645855 3.848284
H 1.261357 3.737118 3.232226
H 2.671031 4.581385 2.335860
H 2.303954 1.540882 2.618780
H 3.584765 2.319491 1.818179
H 2.021781 2.361437 1.238487
Pb -0.593669 -0.969843 -0.171786
Cl 1.962403 -0.760349 -0.868402
Cl -1.344510 0.734173 -1.957244
Cl -0.305123 0.915491 1.672821
12
Atoms
C 3.014116 3.368491 3.049458
N 2.016643 2.738259 2.021231
H 3.482665 2.527116 3.652650
H 2.440446 4.033339 3.634951
H 3.702989 3.948368 2.455554
H 1.270113 2.129322 2.472038
H 2.486983 2.006913 1.333332
H 1.553577 3.414345 1.416652
Pb -1.119561 -0.886947 -0.721953
Cl 1.231644 -1.522974 -1.817143
Cl -0.402312 1.608591 -0.431071
Cl -0.309807 -1.685654 1.647423
12
Atoms
C 3.200305 3.219711 2.800051
N 1.929844 2.751068 2.277042
H 3.569625 2.490449 3.492757
H 2.981130 4.170512 3.420618
H 3.935824 3.397845 2.046400
H 1.160416 2.572825 2.907386
H 1.991098 1.854797 1.681972
H 1.432362 3.482134 1.558369
Pb -0.950949 -1.060385 -0.843188
Cl 0.984321 0.167644 -2.046870
Cl -1.414711 0.951448 0.807162
Cl 0.606970 -2.272212 0.864558
12
Atoms
C 2.723120 3.716749 2.817893
N 2.266562 2.385666 2.308476
H 2.828494 3.648360 3.904716
H 2.019371 4.400070 2.528263
H 3.640495 3.930047 2.403204
H 1.385590 2.077090 2.657973
H 2.997882 1.521403 2.510616
H 2.168778 2.321910 1.237220
Pb -0.753916 -1.081808 -0.978032
Cl 1.271296 0.457315 -1.305274
Cl -2.173639 0.778902 0.224537
Cl 0.139331 -2.093723 1.289356
12
Atoms
C 2.695000 3.755577 2.585043
N 2.272493 2.374522 2.476041
H 3.319697 3.901582 3.477730
H 1.901880 4.457558 2.558617
H 3.369652 3.991797 1.737364
H 1.645205 2.028382 3.236928
H 3.019575 1.563287 2.463503
H 1.730128 2.147952 1.592854
Pb -0.931439 -0.983425 -0.952824
Cl 1.669504 -0.805630 -1.401616
Cl -1.144156 1.436191 0.054243
Cl -0.603385 -2.067659 1.424132
12
Atoms
C 3.105088 3.340557 2.913900
N 2.004061 2.699666 2.184284
H 3.682119 2.557204 3.415683
H 2.686255 4.026943 3.696424
H 3.709286 3.904008 2.285973
H 1.226612 2.133710 2.649157
H 2.334900 2.049749 1.423483
H 1.355404 3.431836 1.651158
Pb -0.668447 -1.293550 -0.856574
Cl 1.764227 -0.629664 -0.066627
Cl -1.197421 1.195129 -1.708945
Cl -1.650630 -0.863522 1.505544
12
Atoms
C 2.756111 3.245469 3.220308
N 2.208019 2.793805 1.918494
H 3.513780 2.578963 3.631054
H 1.889639 3.412357 3.892912
H 3.268424 4.307681 3.060928
H 1.728221 1.865627 1.918898
H 2.955944 2.641086 1.132743
H 1.533698 3.344433 1.413452
Pb -1.169305 -1.340528 -1.195232
Cl 1.255635 -2.232108 -0.733368
Cl -0.392093 1.186021 -1.407762
Cl -1.737281 -1.108877 1.335011
12
Atoms
C 3.279185 3.061653 2.667490
N 1.850338 2.888232 2.307346
H 3.532914 2.440100 3.494257
H 3.429527 4.187706 3.013428
H 3.906373 2.919620 1.794411
H 1.153336 3.120752 3.058054
H 1.556520 1.949117 1.946006
H 1.450696 3.560938 1.527850
Pb -0.953722 -1.673985 -0.951881
Cl 1.472603 -0.732867 -0.641322
Cl -1.667114 0.400868 -2.368484
Cl -1.794140 -0.590551 1.334230
12
Atoms
C 2.911150 3.624639 2.366231
N 2.121163 2.512905 2.618179
H 3.995469 3.389637 2.802451
H 2.590886 4.471807 2.904891
H 2.964120 3.851376 1.327871
H 1.964875 2.217610 3.671238
H 2.367917 1.529157 2.143558
H 1.084931 2.627940 2.362467
Pb -0.911602 -1.699754 -0.816905
Cl 1.484339 -0.421770 -1.080251
Cl -2.080803 -0.097016 -2.473933
Cl -1.598012 -0.302198 1.272820
12
Atoms
C 2.431561 3.795670 2.755424
N 2.508644 2.341150 2.255803
H 3.173014 4.012807 3.504908
H 1.404528 3.922320 3.121221
H 2.575826 4.419066 1.862422
H 2.470778 1.601885 3.055586
H 3.516435 2.143648 1.858304
H 1.922552 2.047537 1.593866
Pb -1.046042 -1.637898 -1.031728
Cl 1.214673 -0.460797 -1.801639
Cl -2.360165 0.713357 -1.160489
Cl -0.522411 -1.380531 1.561451
12
Atoms
C 2.858950 3.326048 3.160506
N 2.148674 2.763067 2.004096
H 2.926280 2.441493 3.925753
H 2.306327 4.181337 3.569223
H 3.919772 3.519251 2.878479
H 1.153907 2.404389 2.125763
H 2.560219 1.913753 1.555259
H 2.080039 3.399583 1.192504
Pb -1.446543 -1.092408 -0.889078
Cl 0.102280 -2.912882 -1.911621
Cl 0.264958 0.877039 -1.503956
Cl -0.384093 -1.381823 1.488757
12
Atoms
C 2.781529 3.627636 2.907714
N 2.302312 2.453254 2.098587
H 2.951905 3.289372 3.931671
H 1.976999 4.332143 2.993858
H 3.646180 4.050980 2.475496
H 1.350431 1.950169 2.493677
H 2.909154 1.674725 2.023824
H 1.933451 2.671693 1.169185
Pb -1.277073 -1.648166 -1.620197
Cl 1.278480 -1.612754 -0.911335
Cl -1.636260 0.850395 -1.077038
Cl -2.018210 -2.494163 0.759087
12
Atoms
C 3.078220 3.436105 2.246573
N 1.977418 2.635255 2.751628
H 3.963961 3.300978 2.907735
H 2.778953 4.498938 2.235623
H 3.375629 3.131303 1.270016
H 1.614776 2.791531 3.735394
H 2.209741 1.532356 2.821623
H 1.054116 2.609195 2.186202
Pb -1.510086 -1.854347 -1.010530
Cl 1.058637 -2.397857 -0.966446
Cl -1.370093 -0.389612 -3.128553
Cl -1.177479 0.267981 0.615779
12
Atoms
C 3.145479 3.374904 2.771256
N 1.855862 2.738932 2.302786
H 3.659843 2.648458 3.449234
H 2.910054 4.344440 3.259033
H 3.801304 3.453116 1.907007
H 1.167995 2.485173 3.058065
H 1.991880 1.798382 1.825375
H 1.317948 3.239746 1.582796
Pb -1.016407 -1.898632 -1.530430
Cl 0.767764 -0.021301 -0.955254
Cl -2.984003 -0.072466 -1.622833
Cl -1.441322 -2.309346 1.128754
12
Atoms
C 2.449816 3.520935 3.068049
N 2.496466 2.484360 2.011974
H 3.326308 3.562460 3.614558
H 1.594612 3.247432 3.825141
H 2.195213 4.533084 2.721886
H 2.722247 1.565587 2.368074
H 3.232508 2.683907 1.286024
H 1.611287 2.486152 1.442995
Pb -1.217846 -1.733136 -1.565485
Cl 0.984352 -0.255243 -1.274067
Cl -2.733101 0.232991 -0.734811
Cl -0.920325 -2.797259 0.765565
12
Atoms
C 3.193163 3.398364 2.769819
N 1.919270 2.686728 2.260509
H 3.338605 3.003831 3.779914
H 2.994555 4.469402 2.766781
H 3.932295 3.083883 2.083978
H 1.097861 2.943609 2.870900
H 1.968876 1.645830 2.231433
H 1.609727 2.888205 1.319422
Pb -1.537680 -1.424711 -1.478810
Cl 0.761963 -2.426568 -2.038013
Cl -0.467449 0.797861 -0.554244
Cl -1.587274 -2.554476 0.983814
12
Atoms
C 2.176302 3.537284 2.915878
N 2.773758 2.477191 2.102515
H 2.392969 3.287401 4.042219
H 1.129562 3.636946 2.827930
H 2.686088 4.519663 2.744667
H 2.250094 1.573778 2.250919
H 3.662067 2.318795 2.161968
H 2.524565 2.644020 1.072208
Pb -1.815621 -1.819890 -1.818502
Cl 0.726504 -2.774259 -1.930548
Cl -0.921946 0.573249 -1.029574
Cl -2.009264 -2.674234 0.689695
12
Atoms
C 2.744301 3.087550 3.301011
N 2.294044 2.916702 1.801340
H 3.544279 2.454618 3.430734
H 1.903988 2.825868 3.922982
H 2.987979 4.157875 3.444237
H 1.970073 1.894451 1.548678
H 3.036999 3.107400 1.158261
H 1.449372 3.507533 1.515513
Pb -1.442012 -2.166595 -1.805239
Cl 0.464726 -0.351298 -1.597528
Cl -3.317432 -0.445015 -1.125207
Cl -1.011629 -2.987872 0.629052
12
Atoms
C 3.271112 3.055487 2.520933
N 1.861725 2.927516 2.511578
H 3.824032 2.171277 2.800062
H 3.539640 3.940986 3.228054
H 3.589117 3.442200 1.563880
H 1.410173 2.646603 3.423147
H 1.435921 2.246975 1.868589
H 1.211030 3.834436 2.299022
Pb -1.646948 -2.243509 -1.477275
Cl 0.789570 -2.473065 -0.725770
Cl -1.175894 -0.257399 -3.129393
Cl -2.339859 -0.603891 0.480545
12
Atoms
C 2.865922 3.722918 2.514401
N 2.080092 2.371288 2.491537
H 3.980162 3.414930 2.632278
H 2.586582 4.297180 3.370555
H 2.706969 4.193181 1.564344
H 2.269434 1.862460 3.311420
H 2.346116 1.778028 1.661534
H 1.051446 2.531354 2.383736
Pb -1.507403 -2.333667 -1.377484
Cl 0.958647 -1.488486 -1.212334
Cl -2.150936 -0.549667 -3.202389
Cl -2.356979 -0.863979 0.657895
12
Atoms
C 3.011518 3.144835 3.054407
N 2.039238 2.896093 2.039617
H 2.793545 2.552966 3.974196
H 2.944435 4.256279 3.325872
H 4.006042 2.981443 2.711023
H 1.039445 2.978987 2.271914
H 2.105806 1.859603 1.662862
H 2.099177 3.415366 1.127918
Pb -1.644575 -2.232931 -1.656925
Cl 0.700334 -2.588220 -0.439438
Cl -0.899017 0.035470 -2.885488
Cl -2.599264 -0.846379 0.428837
12
Atoms
C 2.814553 3.078215 3.255434
N 2.206884 2.929850 1.920877
H 3.313067 2.109033 3.479500
H 2.110117 3.285937 3.989610
H 3.641172 3.929516 3.150778
H 1.411924 2.217635 1.818556
H 2.844228 2.671044 1.116685
H 1.664794 3.801230 1.566227
Pb -2.081189 -2.123708 -1.982119
Cl -0.183708 -3.963468 -1.886061
Cl -0.353636 -0.177345 -2.176880
Cl -2.229413 -1.912467 0.679175
12
Atoms
C 2.648062 3.718027 2.752692
N 2.390113 2.339663 2.263750
H 3.500050 3.722215 3.455362
H 1.718166 4.130466 3.301299
H 2.745228 4.416060 1.870611
H 2.208574 1.623220 3.051722
H 3.133676 1.877740 1.719778
H 1.552149 2.287666 1.642660
Pb -1.766087 -2.448536 -2.116168
Cl 0.354765 -0.792913 -1.835872
Cl -3.354389 -0.642451 -1.093947
Cl -1.261657 -3.533419 0.198628
12
Atoms
C 3.219194 3.312950 2.608136
N 1.831999 2.792982 2.471513
H 3.861331 2.443448 2.827966
H 3.235542 4.091071 3.338361
H 3.506309 3.687837 1.618579
H 1.459543 2.277933 3.341831
H 1.682867 1.989373 1.776447
H 1.077569 3.486006 2.153661
Pb -1.462920 -2.644864 -1.853162
Cl 0.305406 -0.736151 -1.196213
Cl -3.144157 -0.855134 -2.940476
Cl -2.683749 -2.552719 0.471953
12
Atoms
C 2.615753 3.434629 3.114798
N 2.350548 2.584731 2.044507
H 3.309240 2.997782 3.794677
H 1.701856 3.727587 3.619172
H 3.189863 4.418101 2.718318
H 1.884413 1.684793 2.228069
H 3.180433 2.304685 1.460901
H 1.670525 2.984086 1.224023
Pb -1.484253 -2.361016 -2.145298
Cl 0.061735 -2.484833 -0.055750
Cl -1.680796 0.285574 -1.968307
Cl -3.713144 -2.797534 -0.690283
12
Atoms
C 2.422747 3.737506 2.728296
N 2.500694 2.339203 2.257475
H 2.783285 3.799963 3.815242
H 1.368834 4.077752 2.713186
H 2.994280 4.428036 2.134027
H 1.945857 1.658879 2.791218
H 3.489790 1.915398 2.296801
H 2.217967 2.193603 1.332132
Pb -1.898338 -2.014081 -2.130370
Cl 0.467280 -3.072352 -1.905146
Cl -1.310459 -0.022452 -0.468018
Cl -2.836439 -3.509407 -0.151485
12
Atoms
C 2.836919 3.523623 2.875194
N 2.082966 2.557118 2.136872
H 3.580987 3.049626 3.616568
H 2.158609 4.262867 3.413239
H 3.545046 4.099646 2.180736
H 1.469692 1.888118 2.758532
H 2.719681 1.794967 1.640685
H 1.494032 2.934825 1.423247
Pb -2.221823 -2.743474 -2.209186
Cl 0.281004 -2.025035 -2.797384
Cl -2.918132 -0.312283 -1.661149
Cl -1.622994 -3.321953 0.319117
12
Atoms
C 2.297318 3.420116 3.219400
N 2.617110 2.687769 1.937110
H 2.745775 2.935759 4.061110
H 1.248638 3.364082 3.295555
H 2.640627 4.390627 3.105646
H 2.395929 1.647144 1.882379
H 3.659149 2.640708 1.770298
H 2.299691 3.079994 1.039285
Pb -2.118987 -2.934947 -2.048283
Cl -0.156518 -1.640104 -3.284093
Cl -3.625410 -0.869979 -1.864933
Cl -1.042870 -2.567193 0.286948
12
Atoms
C 2.327755 3.397906 3.164123
N 2.678251 2.644372 1.985042
H 2.600785 2.916072 4.077446
H 1.218102 3.485575 3.204346
H 2.784206 4.459930 3.077111
H 2.340072 1.647328 1.882695
H 3.748588 2.485829 1.831773
H 2.406741 3.041787 0.990384
Pb -1.995635 -3.046815 -1.968287
Cl 0.352120 -2.285483 -1.112890
Cl -2.032757 -1.232818 -3.968005
Cl -3.237769 -1.384398 -0.342608
12
Atoms
C 3.282672 3.067728 2.779076
N 1.876553 2.955512 2.292773
H 3.635621 1.995743 2.800147
H 3.217272 3.437346 3.792095
H 3.783240 3.759851 2.123543
H 1.174688 2.410429 2.910462
H 1.713920 2.662971 1.355080
H 1.319985 3.890357 2.310704
Pb -2.491611 -2.551863 -1.781053
Cl -0.602953 -4.240901 -2.540259
Cl -1.769874 -0.826407 -3.567876
Cl -0.993381 -1.511771 0.085161
12
Atoms
C 2.541913 3.747866 2.433491
N 2.403292 2.313093 2.597496
H 3.223311 4.153278 3.171997
H 1.581237 4.228624 2.541775
H 2.947284 4.085429 1.407255
H 2.102924 2.002454 3.510246
H 3.375443 1.809758 2.477986
H 1.757757 1.829921 1.808261
Pb -2.007718 -2.942489 -2.184775
Cl 0.286869 -1.718060 -2.370321
Cl -3.405010 -0.609739 -2.256390
Cl -2.036136 -2.964901 0.438131
12
Atoms
C 2.482283 3.770940 2.672639
N 2.484372 2.374453 2.309244
H 2.543581 3.816338 3.778917
H 1.546500 4.289907 2.427271
H 3.366994 4.272845 2.266036
H 1.661240 1.739098 2.699192
H 3.292426 1.757127 2.622326
H 2.348478 2.174850 1.285887
Pb -2.715533 -2.950824 -1.940290
Cl -0.954744 -4.298085 -3.470660
Cl -2.342849 -0.747171 -3.296375
Cl -0.922486 -2.357335 -0.165350
12
Atoms
C 3.225501 3.147722 2.795098
N 1.838775 2.838434 2.310438
H 3.489272 2.413571 3.621196
H 3.324416 4.170703 3.127181
H 3.894994 3.011668 1.916936
H 1.142822 2.956025 2.974194
H 1.717158 1.913603 1.853018
H 1.530193 3.555564 1.524220
Pb -2.528111 -2.744194 -2.640088
Cl -0.731899 -4.635951 -2.073862
Cl -0.799953 -0.831872 -2.092309
Cl -3.514640 -2.723038 -0.248601
12
Atoms
C 2.762373 3.344100 3.203630
N 2.243614 2.704119 1.975287
H 3.163570 2.593584 3.849952
H 1.871716 3.905352 3.655222
H 3.544217 4.106255 2.968535
H 1.486871 1.956890 2.102211
H 3.039082 2.198661 1.401328
H 1.883620 3.296778 1.251903
Pb -2.437673 -3.000360 -2.672748
Cl 0.131966 -3.200236 -2.184028
Cl -2.501758 -0.402542 -2.154378
Cl -3.023814 -3.624664 -0.167399
12
Atoms
C 2.738758 3.613983 2.948170
N 2.273877 2.503712 2.127582
H 3.351139 3.106939 3.782582
H 1.887186 4.095586 3.377447
H 3.351261 4.311582 2.436393
H 1.679683 1.743146 2.575419
H 3.007569 1.916330 1.630651
H 1.667466 2.850959 1.269065
Pb -2.221247 -3.274334 -2.306879
Cl -0.291760 -2.498549 -0.646278
Cl -1.893108 -1.227162 -3.956224
Cl -4.066428 -2.137851 -0.962117
12
Atoms
C 2.672472 3.756669 2.554866
N 2.311426 2.293248 2.469328
H 3.601538 3.830411 3.193373
H 1.844589 4.253638 3.160980
H 2.789854 4.276634 1.622037
H 2.169041 1.737685 3.349869
H 3.084761 1.831800 1.875004
H 1.423321 2.131028 1.820581
Pb -2.304818 -3.022774 -2.649748
Cl 0.203534 -2.754705 -2.115175
Cl -2.825743 -0.517030 -2.280727
Cl -2.939747 -3.697570 -0.112644
