4
Atoms
Pb 0.134939 0.094135 0.152826
Cl 2.767340 0.232853 0.077164
Cl -0.138816 2.703617 -0.100291
Cl 0.070357 0.210233 2.786018
12
Atoms
C 2.856348 3.465525 2.882101
N 2.065567 2.498566 2.094128
H 3.535110 2.922596 3.560587
H 2.178424 4.101417 3.475260
H 3.449516 4.098951 2.201873
H 1.464495 1.844420 2.661628
H 2.631700 1.844694 1.490830
H 1.384889 2.928154 1.415175
Pb 0.134939 0.094135 0.152826
Cl 2.767340 0.232853 0.077164
Cl -0.138816 2.703617 -0.100291
Cl 0.070357 0.210233 2.786018
8
Atoms
C 2.856348 3.465525 2.882101
N 2.065567 2.498566 2.094128
H 3.535110 2.922596 3.560587
H 2.178424 4.101417 3.475260
H 3.449516 4.098951 2.201873
H 1.464495 1.844420 2.661628
H 2.631700 1.844694 1.490830
H 1.384889 2.928154 1.415175
4
Atoms
Pb 0.936681 0.524719 0.129962
Cl -1.679977 0.687108 0.163969
Cl 0.935935 -1.170666 2.126620
Cl 1.194601 2.606328 1.515372
12
Atoms
C -0.951727 3.754188 3.182106
N -0.331584 2.568829 2.277038
H -1.563634 4.364977 2.486541
H -0.264210 4.379032 3.501556
H -1.474495 3.334534 4.000664
H 0.275626 3.037256 1.568373
H -0.941107 1.959518 1.830685
H 0.379102 2.021589 2.798511
Pb 1.262960 0.055938 0.289212
Cl -1.370473 0.292638 0.628095
Cl 1.644383 0.416756 2.951971
Cl 1.420010 2.632409 -0.278906
8
Atoms
C 2.199723 3.119874 3.355677
N 2.854747 3.041763 2.021523
H 1.461613 4.020533 3.151455
H 2.780889 3.314682 4.098657
H 1.611863 2.247771 3.346996
H 3.569735 3.783576 1.722164
H 2.384616 2.815265 1.240371
H 3.685354 2.041807 1.993912
12
Atoms
C 2.064509 3.780642 2.629395
N 2.899605 2.535751 2.510851
H 1.420722 3.831116 1.640660
H 2.638481 4.628447 2.755650
H 1.366794 3.684256 3.553037
H 3.403999 2.481380 1.640380
H 2.387440 1.561079 2.265199
H 3.601786 2.309113 3.334551
Pb 0.612770 0.057721 -0.272395
Cl -2.079796 0.291438 -0.123543
Cl 0.658144 -1.038231 2.220681
Cl 0.984574 2.470662 0.933550
12
Atoms
C 2.231692 2.961569 3.244950
N 2.854507 3.134994 2.039914
H 1.658454 3.584278 3.497204
H 2.795297 2.586867 3.970345
H 1.457201 1.998695 3.060705
H 3.589207 4.037564 2.112177
H 2.350608 3.611714 1.174815
H 3.534412 2.439546 1.677717
Pb 0.274770 -0.511523 -0.216212
Cl -2.311217 -0.129801 0.085380
Cl 0.799529 0.306366 2.244788
Cl 0.716647 1.864853 -1.207865
12
Atoms
C 2.234031 3.592476 2.938603
N 2.803003 2.542189 2.281133
H 1.535609 4.166453 2.238016
H 3.105688 4.358355 3.315493
H 1.629790 3.321495 3.743357
H 3.441266 2.679984 1.368575
H 2.151337 1.772808 1.796057
H 3.333220 1.920722 2.774776
Pb 0.154467 -0.745199 -0.437821
Cl -2.403170 -0.850567 -0.766896
Cl 0.060106 -0.411651 2.219352
Cl 0.332592 1.772798 -1.044455
12
Atoms
C 2.056856 2.691909 3.128872
N 2.922972 3.251750 2.029770
H 1.335798 3.393862 3.696531
H 2.612063 2.108148 3.954643
H 1.285905 1.873578 2.587744
H 3.474817 3.861590 2.373538
H 2.379440 3.697160 1.312011
H 3.410465 2.639523 1.618216
Pb -0.152370 -1.121269 -0.714394
Cl -2.898162 -1.295786 -0.900353
Cl -0.227510 -0.939181 1.897983
Cl -0.055040 1.500521 -1.077040
12
Atoms
C 1.944501 3.671421 2.697872
N 3.006541 2.512349 2.383746
H 1.332901 4.019677 1.799459
H 2.638056 4.476171 2.935250
H 1.452610 3.529738 3.529820
H 3.689669 2.589749 1.560554
H 2.498428 1.635167 2.028280
H 3.560666 2.172742 3.094572
Pb -0.559196 -1.486984 -1.159628
Cl -2.912271 -1.067812 -0.577888
Cl 0.201525 -1.469316 1.304438
Cl -0.023486 0.986015 -1.470988
12
Atoms
C 2.034466 2.832363 3.251900
N 2.912879 3.297080 2.063779
H 1.431716 3.733234 3.596124
H 2.760850 2.408575 3.868871
H 1.340795 2.100473 2.713754
H 3.570354 4.221434 2.309566
H 2.219313 3.777316 1.277122
H 3.559164 2.646004 1.589640
Pb -0.718982 -1.700389 -1.280331
Cl -3.306622 -1.820071 -1.570626
Cl -0.662330 -1.546157 1.309939
Cl -0.504378 0.877323 -1.557093
12
Atoms
C 2.153125 3.192118 3.195684
N 2.877250 3.017858 1.966117
H 1.575656 4.225216 3.034525
H 2.782150 3.350386 3.977238
H 1.341695 2.317386 3.252055
H 3.573599 3.995326 1.752230
H 2.380676 2.874079 1.036244
H 3.615455 2.270686 1.978159
Pb -0.898740 -1.521131 -1.758580
Cl -3.603832 -1.238450 -1.792491
Cl -1.024091 -3.959076 -0.731713
Cl -0.679679 -0.325026 0.615715
12
Atoms
C 2.017333 3.607458 2.381007
N 2.972497 2.492660 2.759469
H 1.373899 3.473118 1.624727
H 2.660464 4.669517 2.275167
H 1.451596 3.882729 3.421023
H 3.669560 2.281093 1.942496
H 2.342512 1.545929 2.860509
H 3.617885 2.535541 3.613582
Pb -1.344388 -2.521186 -1.378167
Cl -3.857832 -1.855610 -1.102329
Cl -0.493018 -0.383335 -0.276157
Cl -1.187652 -1.758226 -3.898093
12
Atoms
C 2.204432 3.713424 2.310177
N 2.809892 2.513446 2.669177
H 1.590061 3.641737 1.381751
H 3.055136 4.534227 2.020318
H 1.745995 4.047379 3.104289
H 3.469831 2.048010 1.876942
H 2.168297 1.701743 2.790141
H 3.562981 2.497990 3.388697
Pb -1.447365 -2.888509 -1.758111
Cl -4.246646 -2.995448 -1.745045
Cl -1.587936 -0.674934 -0.273827
Cl -1.388306 -1.339651 -3.989678
12
Atoms
C 2.133550 3.696952 2.356155
N 2.936470 2.474507 2.752195
H 1.517920 3.534692 1.648007
H 3.004310 4.550565 2.257777
H 1.713010 3.998595 3.463030
H 3.528769 2.038478 1.935353
H 2.417634 1.695643 3.052067
H 3.728998 2.479479 3.608822
Pb -1.809410 -3.258012 -2.321688
Cl -4.514286 -2.914643 -2.153408
Cl -1.596377 -2.495895 0.305148
Cl -1.512778 -0.687670 -3.120820
