4
Atoms
Pb 0.134939 0.094135 0.152826
Cl 2.767340 0.232853 0.077164
Cl -0.138816 2.703617 -0.100291
Cl 0.070357 0.210233 2.786018
12
Atoms
C 2.856348 3.465525 2.882101
N 2.065567 2.498566 2.094128
H 3.535110 2.922596 3.560587
H 2.178424 4.101417 3.475260
H 3.449516 4.098951 2.201873
H 1.464495 1.844420 2.661628
H 2.631700 1.844694 1.490830
H 1.384889 2.928154 1.415175
Pb 0.134939 0.094135 0.152826
Cl 2.767340 0.232853 0.077164
Cl -0.138816 2.703617 -0.100291
Cl 0.070357 0.210233 2.786018
8
Atoms
C 2.856348 3.465525 2.882101
N 2.065567 2.498566 2.094128
H 3.535110 2.922596 3.560587
H 2.178424 4.101417 3.475260
H 3.449516 4.098951 2.201873
H 1.464495 1.844420 2.661628
H 2.631700 1.844694 1.490830
H 1.384889 2.928154 1.415175
4
Atoms
Pb 0.189736 0.757403 1.037914
Cl 2.297906 2.261003 0.156882
Cl 1.721084 -1.527959 1.023177
Cl -0.756263 0.290333 -1.387583
4
Atoms
Pb -0.077548 0.438228 0.808425
Cl 0.834250 0.290777 -1.895431
Cl 0.740510 2.824837 1.020670
Cl 2.422512 -0.490103 1.655458
4
Atoms
Pb 0.066351 0.642620 1.067086
Cl 1.825941 2.528297 0.755420
Cl 2.004939 -1.083327 0.868919
Cl -0.223848 0.598957 -1.765332
4
Atoms
Pb 0.134662 0.299295 0.702630
Cl 2.624973 0.047316 1.651248
Cl 0.862338 1.224642 -1.428225
Cl -0.353507 2.512937 2.012935
4
Atoms
Pb 0.517865 0.294762 1.041912
Cl -1.350991 1.829610 0.014200
Cl 2.418176 2.168870 1.604153
Cl 1.529626 -0.245920 -1.258232
12
Atoms
C 2.418207 1.881650 -2.584641
N 2.009282 1.593053 -1.380437
H 2.243145 2.826572 -3.101474
H 2.409988 1.144307 -3.395572
H 3.645146 2.175223 -2.569379
H 0.913720 1.520673 -1.330009
H 1.949099 2.299584 -0.712497
H 2.364990 0.704724 -0.806237
Pb 0.320308 0.692004 1.860143
Cl 1.592936 3.115910 1.246162
Cl 2.330372 -0.820754 0.726692
Cl -0.953009 0.807405 -0.566797
12
Atoms
C -0.096153 4.746952 -0.026747
N 0.223760 3.311409 0.387590
H -0.601842 5.038724 0.810588
H -0.199726 4.815950 -0.945472
H 0.919325 5.525614 0.188264
H -0.582885 2.744684 0.411142
H 0.648638 3.279267 1.368361
H 1.049486 2.884176 -0.274844
Pb 1.025749 -0.004497 1.082132
Cl 1.512997 1.833327 2.964578
Cl 2.313186 1.005716 -0.820528
Cl -1.224829 0.687840 0.452874
12
Atoms
C -1.534545 -2.282824 1.874057
N -0.729239 -1.073867 1.524557
H -1.099564 -3.232862 1.706387
H -2.337935 -2.714287 0.847510
H -2.224263 -2.120520 2.423441
H -0.233422 -1.405747 0.568710
H -0.039287 -0.935522 2.015624
H -1.209235 -0.374944 1.093714
Pb 1.494382 1.656893 0.633972
Cl 1.365343 0.315817 2.963922
Cl -1.173417 1.842674 0.692593
Cl 1.555191 -0.424163 -0.594048
12
Atoms
C 1.369506 4.740373 2.081191
N 1.312477 3.390817 1.611077
H 2.426364 4.908311 1.956584
H 0.722887 4.984217 2.912682
H 0.806889 5.440203 1.193360
H 1.607515 2.682620 2.062824
H 1.627555 3.083485 0.575503
H 0.214157 3.083568 1.359131
Pb 0.804137 -0.016180 0.581855
Cl 1.996039 1.689854 -0.951756
Cl -1.336958 1.650571 1.142396
Cl 2.006530 0.609028 2.843808
12
Atoms
C 4.329665 2.520885 1.758735
N 3.105813 2.011897 1.623838
H 5.166027 1.981233 1.141982
H 4.618866 2.187158 2.925166
H 4.463178 3.618130 1.702146
H 2.953054 1.042251 1.793334
H 2.670356 2.023509 0.335916
H 2.486035 2.429745 1.986205
Pb -0.063857 0.608298 0.753398
Cl 1.529119 1.639240 -1.234971
Cl 0.222136 2.657078 2.437741
Cl 1.910980 -0.899832 1.764225
8
Atoms
C 3.019024 2.330527 2.640535
N 2.225396 3.687539 2.415077
H 2.386890 1.790454 3.518828
H 3.897813 2.531644 3.388877
H 3.057032 1.683168 1.911196
H 2.174697 4.183296 3.310245
H 1.470991 3.684339 1.955542
H 2.934091 4.306914 1.606336
8
Atoms
C 2.467055 3.830190 2.446202
N 2.538439 2.424350 2.633174
H 2.934393 4.459764 1.481451
H 2.977995 4.415722 3.067612
H 1.330888 4.127883 2.330772
H 3.503615 2.055539 2.508536
H 1.976610 2.004548 1.790449
H 2.168121 1.934593 3.451973
8
Atoms
C 1.788860 2.896214 2.327934
N 3.214946 3.314477 2.856396
H 1.141346 3.754389 2.731907
H 1.446925 2.018997 2.488381
H 1.592108 3.052343 1.190815
H 3.205269 3.221011 3.917625
H 3.557209 4.162113 2.505917
H 3.968416 2.567790 2.649383
8
Atoms
C 3.058457 2.802141 3.132999
N 2.105172 3.376180 2.127155
H 3.866428 3.400009 3.652183
H 3.537047 1.841141 2.833174
H 2.178563 2.746872 3.938831
H 2.897050 3.768441 1.317600
H 1.763188 4.537907 2.328742
H 1.390786 2.965026 1.518124
8
Atoms
C 2.362278 3.884814 2.877109
N 2.694068 2.537749 2.416900
H 3.323171 4.509616 2.895803
H 1.771063 3.862735 3.749196
H 1.742871 4.330378 1.826935
H 3.330332 2.107687 3.253024
H 3.536665 2.439045 1.535602
H 2.055032 1.676353 2.410358
12
Atoms
C 2.700801 3.419577 3.100325
N 2.244563 2.650592 1.938187
H 3.155421 2.776514 3.921598
H 1.875924 3.942930 3.555454
H 3.454668 4.188388 2.781158
H 1.559953 1.829186 2.231303
H 3.013587 2.129665 1.498156
H 1.836258 3.220676 1.243329
Pb 0.116890 -0.116084 -0.200444
Cl 2.577561 0.449632 0.336381
Cl -0.669919 2.355690 0.035649
Cl -0.507004 -0.744519 2.325406
12
Atoms
C 2.745155 3.689658 2.899476
N 2.267343 2.430318 2.207384
H 3.617229 3.480809 3.413818
H 2.005275 4.004735 3.593287
H 2.930830 4.458420 2.140266
H 2.069323 1.662905 2.885820
H 2.995154 2.050084 1.513376
H 1.414233 2.488851 1.587246
Pb 0.055193 -0.200810 -0.121258
Cl 2.641123 0.163618 0.267557
Cl -0.470023 2.269369 -0.553914
Cl -0.480400 0.039629 2.491992
12
Atoms
C 2.569123 3.545261 3.040365
N 2.352575 2.446983 2.123849
H 3.064368 3.225044 3.991848
H 1.647581 4.092402 3.194153
H 3.411296 4.260815 2.577930
H 1.734861 1.732787 2.417353
H 3.231047 1.882445 1.864305
H 1.968053 2.780218 1.108853
Pb -0.168811 0.000199 -0.114387
Cl 2.182522 -1.043708 0.132804
Cl 0.782505 2.466061 -0.239883
Cl -0.522363 0.150009 2.444248
12
Atoms
C 2.995939 3.620367 2.595072
N 2.089205 2.458478 2.488967
H 3.700324 3.319543 3.304463
H 2.393706 4.517784 2.937872
H 3.482474 3.773220 1.598460
H 1.530662 2.137494 3.301477
H 2.480253 1.543863 2.088196
H 1.253210 2.628106 1.781417
Pb 0.063106 -0.089457 -0.224999
Cl 2.596706 0.401818 0.402763
Cl -0.627969 2.402023 0.240682
Cl -0.546054 -0.871502 2.223317
12
Atoms
C 2.761628 3.762257 2.797595
N 2.237970 2.316805 2.259345
H 3.273908 3.614166 3.691263
H 1.866969 4.391309 3.006144
H 3.381225 4.195759 1.952535
H 1.679348 1.912440 2.977514
H 3.050857 1.760613 2.078647
H 1.693855 2.376462 1.379638
Pb -0.152073 -0.165552 0.105499
Cl 2.219930 -0.106206 -0.912569
Cl -0.477912 2.456913 -0.106951
Cl 0.665304 -0.053504 2.583417
12
Atoms
C 2.982784 3.409178 2.945599
N 2.091399 2.632889 2.153598
H 3.837387 2.872078 3.215483
H 2.462665 3.806265 3.827389
H 3.234415 4.327243 2.371348
H 1.743928 1.723817 2.553858
H 2.497455 2.289696 1.194834
H 1.166855 3.100194 1.852147
Pb -0.442634 -0.415413 -0.276164
Cl 2.155998 -1.099158 -0.028367
Cl 0.032561 2.042020 -0.985049
Cl -0.698093 0.165884 2.226197
12
Atoms
C 2.908658 3.408358 2.971708
N 2.105561 2.631523 2.142451
H 3.805532 2.845842 3.306940
H 2.330861 3.644467 3.929786
H 3.233237 4.317034 2.458365
H 1.734303 1.740605 2.467699
H 2.574763 2.285358 1.208370
H 1.221232 3.076760 1.784028
Pb -0.286170 -0.562746 -0.410665
Cl 2.341766 -0.253730 -0.239260
Cl -0.688603 2.092939 -0.607157
Cl -0.622266 -0.436064 2.278113
12
Atoms
C 3.102902 3.459756 2.762307
N 1.971354 2.638945 2.333418
H 3.819127 2.784899 3.312695
H 2.718199 4.242883 3.499804
H 3.538260 3.898516 1.922337
H 1.457835 2.112310 3.064843
H 2.181816 1.828602 1.640277
H 1.224756 3.120977 1.790425
Pb -0.439143 -0.530360 -0.287805
Cl 2.104959 -0.982783 -0.326149
Cl -0.096827 2.078291 -0.939508
Cl -0.376201 0.159328 2.358774
12
Atoms
C 3.022701 3.283310 2.965000
N 2.006240 2.792453 2.063493
H 3.760151 2.499512 3.256464
H 2.640825 3.743958 3.860539
H 3.666429 4.029318 2.404101
H 1.373050 1.992099 2.474505
H 2.281112 2.283794 1.173404
H 1.285188 3.504759 1.747896
Pb -0.468316 -0.501871 -0.161655
Cl 2.015883 -1.154234 -0.524927
Cl -0.170652 1.937965 -1.178084
Cl 0.054191 0.401019 2.253567
12
Atoms
C 2.691738 3.674959 2.942084
N 2.277738 2.387754 2.189621
H 3.338877 3.406468 3.709100
H 1.794482 4.174785 3.256368
H 3.227514 4.335958 2.186718
H 1.757524 1.679916 2.797960
H 3.033476 1.892552 1.785928
H 1.670434 2.579865 1.370852
Pb -0.402992 -0.546035 -0.286439
Cl 1.997269 0.014287 -1.162768
Cl -0.982259 2.097434 0.084459
Cl 0.420130 -0.828553 2.172729
12
Atoms
C 3.044020 3.425154 2.905907
N 1.963521 2.634632 2.129674
H 3.721902 2.770449 3.405221
H 2.551277 4.044055 3.658169
H 3.608648 3.975517 2.217006
H 1.447503 2.043257 2.697983
H 2.417844 1.927341 1.419630
H 1.300638 3.247513 1.644394
Pb -0.421534 -0.894341 -0.606347
Cl 2.005389 -0.442188 0.187532
Cl -0.857864 1.535893 -1.306917
Cl -1.434794 -0.566749 1.794073
12
Atoms
C 3.012078 3.610981 2.574059
N 2.027469 2.501145 2.438241
H 3.860738 3.276086 3.120870
H 2.462282 4.360704 3.239496
H 3.235489 4.059147 1.592127
H 1.741135 1.987868 3.297326
H 2.479778 1.696701 1.800990
H 1.110557 2.737637 1.917805
Pb -0.659830 -0.804157 -0.556173
Cl 1.828066 -0.452213 -1.309149
Cl -1.155209 1.718900 -0.492113
Cl 0.051554 -0.880596 2.066483
12
Atoms
C 2.614390 3.481469 3.094498
N 2.314266 2.637546 2.026363
H 3.345432 2.977577 3.759916
H 1.806556 3.670148 3.662082
H 3.090794 4.388070 2.790029
H 1.906991 1.688833 2.268143
H 3.136569 2.382699 1.369398
H 1.680443 2.968589 1.306352
Pb -0.761966 -0.716679 -0.621584
Cl 1.826146 -0.579433 -1.379162
Cl -0.843708 1.786856 0.113726
Cl -0.092528 -1.542945 1.800880
12
Atoms
C 2.772977 3.720568 2.720767
N 2.246100 2.385244 2.297198
H 3.763731 3.513322 3.226844
H 2.144679 4.200789 3.427669
H 2.978405 4.285303 1.862213
H 2.060449 1.768825 3.139782
H 2.863595 1.816950 1.643728
H 1.273148 2.456914 1.854520
Pb -0.590568 -0.998025 -0.469912
Cl 1.667795 -0.103858 -1.456154
Cl -1.731532 1.408508 -0.667783
Cl 0.267731 -0.541920 2.004980
12
Atoms
C 3.124473 3.240551 2.997083
N 1.958303 2.789647 2.166504
H 3.512202 2.380357 3.491640
H 2.722646 3.956606 3.666502
H 3.855487 3.745290 2.360660
H 1.173471 2.275822 2.663029
H 2.253710 2.066524 1.350870
H 1.530094 3.573633 1.625230
Pb -0.772901 -0.633372 -0.510768
Cl 1.538667 -1.589181 -1.148189
Cl 0.083207 1.863833 -0.544223
Cl -0.415972 -0.825897 2.055523
12
Atoms
C 3.135245 3.430357 2.740651
N 1.899788 2.632974 2.355883
H 3.858196 2.703759 3.214086
H 2.757114 4.224483 3.393292
H 3.628015 3.876027 1.792858
H 1.402997 2.130264 3.109397
H 2.140977 1.865125 1.632094
H 1.160146 3.146988 1.820910
Pb -0.942514 -1.001228 -0.995702
Cl 1.559268 -1.805575 -0.555697
Cl -0.262872 1.522217 -0.889933
Cl -1.521194 -1.073101 1.612272
12
Atoms
C 2.715250 3.592974 3.003820
N 2.267673 2.509306 2.047390
H 2.943949 3.059870 3.973229
H 1.969678 4.357513 3.124397
H 3.674349 3.977537 2.580497
H 1.345223 2.013926 2.359919
H 2.853087 1.740734 1.882886
H 1.997660 2.887901 1.174103
Pb -0.887787 -1.266814 -0.710595
Cl 1.714156 -1.237867 -1.028721
Cl -1.084158 1.230835 -1.653306
Cl -0.794079 -0.421926 1.837646
12
Atoms
C 2.646627 3.447784 3.078473
N 2.369473 2.604121 1.998782
H 3.389554 2.928466 3.776455
H 1.746359 3.649337 3.702924
H 2.995310 4.410617 2.781795
H 1.922481 1.624733 2.148977
H 3.162066 2.337636 1.354407
H 1.658426 2.955816 1.342049
Pb -0.838058 -0.948863 -1.083214
Cl 1.719969 -1.290366 -0.587863
Cl -0.840886 1.542804 -0.287963
Cl -1.453312 -1.865554 1.387519
12
Atoms
C 3.030878 3.301515 2.957504
N 1.996224 2.696657 2.127854
H 3.596166 2.564889 3.435302
H 2.528244 3.945036 3.742116
H 3.697528 3.985035 2.400628
H 1.324618 1.996463 2.609886
H 2.480877 2.050435 1.299634
H 1.403165 3.381267 1.544512
Pb -0.974444 -1.008599 -0.920638
Cl 1.568346 -1.732130 -0.828808
Cl -0.415301 1.578600 -0.658604
Cl -1.283640 -1.305572 1.621463
12
Atoms
C 3.003989 3.533336 2.783918
N 2.062930 2.604148 2.304114
H 3.680900 2.993640 3.444945
H 2.476873 4.312768 3.351457
H 3.578675 3.973158 1.996437
H 1.454887 2.096067 3.034516
H 2.364579 1.799219 1.756054
H 1.334557 2.960581 1.606176
Pb -1.048536 -0.921946 -0.882101
Cl 1.486181 -1.102596 -1.626484
Cl -0.753515 1.579987 -0.157952
Cl -0.525806 -1.829753 1.536080
12
Atoms
C 2.988617 3.359863 2.964043
N 2.033462 2.707886 2.068283
H 3.576033 2.477455 3.465147
H 2.562264 3.921466 3.791935
H 3.738417 3.871007 2.426285
H 1.307799 2.120498 2.530552
H 2.435525 2.121721 1.327063
H 1.429304 3.407863 1.591312
Pb -0.977601 -1.674022 -1.073221
Cl 1.558980 -0.787064 -0.611726
Cl -1.671501 0.667397 -2.100305
Cl -1.780204 -0.985556 1.342367
12
Atoms
C 2.886395 3.548608 2.986302
N 2.099052 2.588026 2.114584
H 3.718393 3.042546 3.492494
H 2.135290 3.988653 3.686438
H 3.321979 4.272762 2.359636
H 1.692753 1.713074 2.641584
H 2.795824 2.019833 1.406797
H 1.308905 2.926476 1.549452
Pb -1.024179 -1.427783 -1.316383
Cl 1.522512 -1.364294 -0.564773
Cl -1.253061 1.176634 -1.130956
Cl -1.923653 -1.823802 1.139638
12
Atoms
C 3.033144 3.351451 2.932736
N 2.004001 2.684675 2.105455
H 3.734014 2.501054 3.232409
H 2.731546 3.835309 3.860096
H 3.604211 4.079962 2.336867
H 1.388686 2.015668 2.663415
H 2.283303 2.170187 1.257472
H 1.284705 3.378202 1.802650
Pb -1.205185 -1.550670 -0.861225
Cl 1.305316 -1.787668 -1.639684
Cl -1.410043 0.932929 -1.847922
Cl -0.641093 -0.679701 1.503820
12
Atoms
C 2.959528 3.581635 2.639268
N 2.057124 2.442825 2.364720
H 3.959933 3.197334 3.045819
H 2.561918 4.238976 3.411490
H 3.144601 4.145798 1.648241
H 1.888556 1.891733 3.191671
H 2.408928 1.744914 1.707870
H 1.079668 2.746231 2.001261
Pb -1.322837 -1.506078 -0.922888
Cl 1.171867 -1.893266 -1.755527
Cl -1.176355 1.059155 -1.556731
Cl -0.564717 -0.992502 1.538701
12
Atoms
C 2.921658 3.619945 2.663065
N 2.078498 2.458266 2.426443
H 3.661198 3.412510 3.396198
H 2.262473 4.399431 3.001319
H 3.380639 3.971169 1.726090
H 1.676169 1.970225 3.231964
H 2.662451 1.644780 1.999465
H 1.372895 2.534352 1.711455
Pb -1.222755 -1.581780 -0.968727
Cl 1.332484 -1.449135 -1.677493
Cl -1.676026 0.928552 -1.759025
Cl -0.695096 -0.784710 1.524800
12
Atoms
C 2.818768 3.652263 2.822463
N 2.250520 2.431524 2.253810
H 3.751165 3.402109 3.261735
H 2.103538 3.982883 3.620943
H 2.940213 4.447919 2.146406
H 2.027206 1.633263 2.832097
H 2.802662 2.013051 1.435465
H 1.246028 2.630088 1.770923
Pb -1.312405 -1.937082 -1.400643
Cl 1.226370 -1.680410 -0.696981
Cl -1.451597 0.649735 -2.210144
Cl -2.145723 -1.339234 1.045917
12
Atoms
C 3.027854 3.433491 2.873991
N 2.057585 2.609181 2.177935
H 3.889347 2.779032 3.195911
H 2.576359 3.789124 3.868974
H 3.308162 4.239901 2.267838
H 1.638146 1.816812 2.744694
H 2.328558 2.150624 1.330745
H 1.086239 3.151161 1.876438
Pb -1.253121 -1.789511 -1.509622
Cl 1.241561 -1.875514 -0.664710
Cl -1.217166 0.800587 -1.710540
Cl -2.232641 -1.724319 0.881237
12
Atoms
C 2.849278 3.683058 2.705883
N 2.194999 2.438523 2.347076
H 3.588314 3.557743 3.441327
H 2.146147 4.425059 2.982748
H 3.382551 4.071638 1.736570
H 1.664025 1.957034 3.183140
H 2.744945 1.637016 2.014618
H 1.453523 2.477458 1.679547
Pb -1.383433 -1.746084 -1.584214
Cl 1.240896 -1.737997 -1.126183
Cl -1.545718 0.891987 -1.168033
Cl -1.828417 -2.229333 0.976452
12
Atoms
C 2.706626 3.623447 2.893776
N 2.275519 2.451580 2.158778
H 3.249227 3.345348 3.769194
H 1.850531 4.199434 3.218837
H 3.403740 4.247405 2.250328
H 1.641754 1.795985 2.727563
H 3.074608 1.852777 1.826693
H 1.659530 2.657543 1.327971
Pb -1.504573 -1.763958 -1.289082
Cl 1.054122 -1.845462 -2.056147
Cl -1.616281 0.877790 -1.439348
Cl -0.929197 -1.790103 1.295680
12
Atoms
C 3.004197 3.432587 2.902887
N 2.007742 2.623545 2.143054
H 3.586244 2.780029 3.588795
H 2.498283 4.147717 3.578440
H 3.716917 3.918893 2.209038
H 1.288550 2.064079 2.786470
H 2.426769 1.913770 1.559425
H 1.380787 3.260695 1.506646
Pb -1.380954 -1.930764 -1.193488
Cl 1.251535 -1.663947 -1.286516
Cl -1.841852 0.236016 -2.569604
Cl -1.522255 -0.703296 1.129391
12
Atoms
C 3.061932 3.277340 2.954296
N 2.036422 2.688981 2.091136
H 3.489082 2.553196 3.655695
H 2.592613 4.107504 3.608956
H 3.820296 3.794674 2.362173
H 1.200287 2.221037 2.576879
H 2.330616 1.990330 1.427218
H 1.534922 3.375467 1.448931
Pb -1.805849 -2.057428 -1.652090
Cl 0.591683 -3.090202 -1.544582
Cl -0.830573 0.362707 -2.310797
Cl -1.833857 -1.474014 0.989455
12
Atoms
C 2.848663 3.459178 2.983353
N 2.113458 2.587018 2.149167
H 3.728049 2.960721 3.442574
H 2.213280 3.888181 3.702408
H 3.296400 4.355605 2.347426
H 1.747237 1.729097 2.537134
H 2.760240 2.077825 1.371627
H 1.307930 3.004229 1.581913
Pb -1.719966 -2.243867 -1.464384
Cl 0.899826 -2.312443 -1.485315
Cl -1.788154 0.042583 -2.719956
Cl -1.802890 -1.150769 0.905348
12
Atoms
C 2.628555 3.455280 3.116343
N 2.338023 2.533231 1.980274
H 3.203246 2.925385 3.947502
H 1.789032 3.986954 3.501621
H 3.323166 4.312549 2.660121
H 1.627742 1.775986 2.327101
H 3.161701 2.039075 1.622807
H 1.836987 2.990075 1.227830
Pb -1.505803 -2.282056 -1.467404
Cl 0.967901 -1.640795 -1.399013
Cl -2.193504 -0.073783 -2.787993
Cl -2.085531 -1.250810 0.898537
12
Atoms
C 2.949263 3.620478 2.753266
N 2.090903 2.466409 2.295327
H 3.690557 3.212167 3.526681
H 2.330831 4.347466 3.219856
H 3.444620 4.061777 1.879295
H 1.596160 1.955289 3.005571
H 2.633543 1.750458 1.768371
H 1.390783 2.745109 1.570011
Pb -1.687439 -2.243109 -1.569722
Cl 0.813924 -1.898870 -2.193525
Cl -2.256499 0.347968 -1.949928
Cl -1.222483 -1.855859 1.044059
12
Atoms
C 2.947627 3.519496 2.873831
N 2.108413 2.532815 2.167653
H 3.341737 2.985400 3.832289
H 2.422257 4.426014 3.182031
H 3.795392 3.762603 2.329186
H 1.212272 2.235465 2.704593
H 2.510910 1.689376 1.845873
H 1.696560 2.961449 1.265083
Pb -1.858597 -2.166585 -1.403699
Cl 0.668452 -2.760760 -1.853904
Cl -1.557490 0.210161 -2.613901
Cl -1.281221 -1.117204 0.942529
12
Atoms
C 3.093510 3.293793 2.926252
N 2.031749 2.762464 2.186099
H 3.591539 2.549162 3.488299
H 2.668199 4.031453 3.691215
H 3.791555 3.849734 2.271102
H 1.278757 2.220936 2.723070
H 2.247069 2.024348 1.392010
H 1.432437 3.458226 1.589495
Pb -1.936815 -2.587154 -1.709668
Cl 0.719755 -2.497363 -1.627551
Cl -2.147771 -0.424009 -3.142215
Cl -2.096902 -1.247603 0.518724
12
Atoms
C 2.928788 3.546724 2.946926
N 2.081808 2.599011 2.102204
H 3.418377 3.016158 3.743862
H 2.184193 4.284949 3.366872
H 3.626337 4.019741 2.357332
H 1.327994 2.023617 2.686889
H 2.651405 1.750091 1.710936
H 1.568069 2.946461 1.295124
Pb -1.740121 -2.428062 -2.125383
Cl 0.690714 -2.319642 -1.124737
Cl -2.055041 0.179724 -1.881156
Cl -2.827818 -2.876718 0.250189
12
Atoms
C 3.084985 3.423526 2.802438
N 1.951622 2.609334 2.279916
H 3.674703 2.719359 3.542893
H 2.633472 4.240881 3.397030
H 3.696128 3.741543 1.996193
H 1.310094 2.280618 2.940402
H 2.262103 1.797488 1.656530
H 1.384967 3.104969 1.520820
Pb -1.749764 -2.599677 -1.836416
Cl 0.766184 -1.810868 -1.641194
Cl -2.583011 -0.348339 -2.815029
Cl -2.343073 -1.915631 0.677067
12
Atoms
C 2.938947 3.378214 2.967595
N 2.042897 2.633721 2.105521
H 3.710133 2.705401 3.449400
H 2.335092 3.828874 3.824923
H 3.435370 4.205240 2.385555
H 1.575851 1.876331 2.536657
H 2.583007 2.117836 1.248770
H 1.357112 3.238480 1.602465
Pb -2.031858 -2.415396 -1.779723
Cl 0.406843 -2.875064 -2.349762
Cl -1.934487 0.090551 -2.435087
Cl -1.484690 -1.940872 0.777742
12
Atoms
C 2.809343 3.274254 3.113218
N 2.202621 2.744803 1.967788
H 3.140638 2.471462 3.884449
H 2.137934 3.987688 3.593785
H 3.811695 3.875248 2.803153
H 1.327609 2.184969 2.150983
H 2.784077 2.068135 1.477561
H 1.890845 3.422567 1.204487
Pb -2.010806 -2.261309 -2.109398
Cl 0.593725 -2.464505 -2.155241
Cl -1.842251 0.236463 -1.288387
Cl -2.126608 -3.156173 0.389218
12
Atoms
C 3.052719 3.355418 2.873539
N 1.961453 2.723738 2.200419
H 3.519786 2.653167 3.660853
H 2.679713 4.146081 3.517778
H 3.813523 3.742341 2.166647
H 1.203261 2.300112 2.764124
H 2.293034 1.839786 1.593226
H 1.489902 3.337283 1.411046
Pb -1.934591 -2.976494 -2.058059
Cl 0.400901 -1.993474 -1.686155
Cl -2.853390 -0.796880 -3.157192
Cl -2.829755 -2.296433 0.288409
12
Atoms
C 2.937875 3.359017 3.056352
N 2.113948 2.670663 2.053787
H 3.623559 2.661955 3.541225
H 2.267497 3.827015 3.806805
H 3.453594 4.189335 2.504192
H 1.551906 1.895136 2.426656
H 2.666914 2.197124 1.248575
H 1.358428 3.267853 1.505252
Pb -2.139655 -2.868628 -2.164685
Cl 0.442207 -2.582997 -1.985638
Cl -2.457724 -0.307954 -2.599613
Cl -2.570166 -2.586919 0.350028
12
Atoms
C 2.950195 3.233763 3.084271
N 2.017212 2.851556 1.967060
H 3.283055 2.283639 3.582302
H 2.449659 3.869928 3.803417
H 3.833746 3.718395 2.626705
H 1.182143 2.355094 2.307770
H 2.411609 2.107543 1.287843
H 1.646541 3.639382 1.393747
Pb -2.299609 -2.630587 -2.282805
Cl 0.097059 -3.628647 -2.291326
Cl -1.399573 -0.102458 -2.177721
Cl -2.504213 -2.708387 0.377541
12
Atoms
C 2.875296 3.499439 3.002213
N 2.148145 2.541948 2.103422
H 3.623204 2.937881 3.532668
H 2.206422 3.926101 3.795152
H 3.358175 4.254925 2.460863
H 1.698733 1.789261 2.584811
H 2.769860 2.135654 1.306749
H 1.342813 2.999192 1.493516
Pb -2.072123 -2.732049 -2.360129
Cl 0.495189 -2.137621 -2.030314
Cl -2.813804 -0.244481 -1.550855
Cl -2.359324 -3.690069 -0.004821
12
Atoms
C 2.862005 3.606925 2.638528
N 2.094332 2.442040 2.338844
H 3.613083 3.431225 3.440399
H 2.242488 4.473781 2.902945
H 3.426184 3.910215 1.720737
H 1.576502 2.084227 3.180918
H 2.677989 1.568319 2.121551
H 1.382009 2.514380 1.589746
Pb -2.104395 -2.904354 -2.149642
Cl 0.286399 -2.072660 -2.721020
Cl -3.158493 -0.552903 -2.331795
Cl -1.727623 -2.578389 0.502142
12
Atoms
C 2.877924 3.351097 3.060023
N 2.138464 2.690453 1.982926
H 3.669372 2.573650 3.475539
H 2.253669 3.619880 3.920989
H 3.456053 4.220868 2.761169
H 1.581970 1.842555 2.235436
H 2.652706 2.433052 1.175286
H 1.346686 3.301833 1.543881
Pb -2.217448 -3.337783 -2.365389
Cl 0.199195 -2.275421 -2.084022
Cl -3.218718 -1.072833 -3.436300
Cl -3.012353 -2.644472 0.062090
12
Atoms
C 3.152241 3.292522 2.910152
N 1.900023 2.767593 2.188120
H 3.634699 2.371537 3.374012
H 2.811128 3.956565 3.733646
H 3.771373 3.785080 2.242717
H 1.237123 2.212533 2.714254
H 2.123110 2.147136 1.361638
H 1.359193 3.471530 1.665591
Pb -2.425337 -3.189680 -2.283983
Cl 0.198366 -3.165863 -2.113084
Cl -2.579008 -0.954632 -3.522703
Cl -2.791666 -2.135027 0.109174
12
Atoms
C 2.668193 3.707836 2.867602
N 2.261502 2.408222 2.179554
H 3.304441 3.568695 3.765564
H 1.775244 4.254149 3.109038
H 3.299993 4.310167 2.057300
H 1.728757 1.814758 2.896102
H 3.076999 1.799669 1.973889
H 1.741605 2.457400 1.371445
Pb -2.270396 -3.105088 -2.577584
Cl 0.131125 -2.248883 -1.912757
Cl -3.275959 -0.738393 -2.486661
Cl -2.948536 -3.677050 -0.152245
12
Atoms
C 2.980749 3.478360 2.802226
N 2.076665 2.507103 2.265239
H 3.734066 3.006050 3.444480
H 2.459099 4.214874 3.455756
H 3.589023 4.014986 2.032606
H 1.407794 2.001979 2.948887
H 2.496163 1.772062 1.620122
H 1.365671 2.946496 1.583319
Pb -2.481724 -3.229354 -2.347812
Cl -0.120411 -2.742355 -3.284337
Cl -3.106509 -0.575339 -2.310929
Cl -1.680823 -3.103095 0.191801
12
Atoms
C 2.989279 3.296948 3.128006
N 2.087485 2.733353 1.989113
H 3.215550 2.423528 3.764347
H 2.417000 4.060546 3.632606
H 3.930344 3.700327 2.614189
H 1.183639 2.348302 2.342948
H 2.476403 1.979630 1.432901
H 1.734734 3.494089 1.272825
Pb -2.644691 -3.003734 -2.435287
Cl -0.268069 -4.111198 -2.657694
Cl -1.725004 -0.529200 -2.927337
Cl -2.355577 -2.621610 0.221347
