8
Atoms
C 2.048035 3.673989 2.488309
N 2.858291 2.489367 2.638631
H 1.452463 3.675759 1.662685
H 2.833136 4.584951 2.441334
H 1.523068 3.777915 3.436911
H 3.485602 2.245536 1.786084
H 2.265047 1.667675 2.652101
H 3.531556 2.344019 3.364055
12
Atoms
C 2.117268 3.511152 2.941273
N 2.946161 2.572087 2.199444
H 1.520267 4.206572 2.396136
H 2.714944 4.111336 3.767202
H 1.532181 2.742278 3.554306
H 3.794252 3.254820 1.691603
H 2.574511 1.962341 1.446685
H 3.590110 1.881371 2.764124
Pb 0.863868 0.461231 -0.079325
Cl -1.798259 0.516658 -0.023732
Cl 0.935320 -1.098704 1.943261
Cl 0.939782 2.684494 1.604587
12
Atoms
C 2.118629 3.128520 3.296369
N 2.774568 2.945488 1.807315
H 1.521991 4.017377 3.233295
H 2.816332 3.354403 4.014323
H 1.336500 2.386912 3.492787
H 3.443797 3.797280 1.634547
H 2.087805 2.930024 1.182341
H 3.384723 2.042123 1.900054
Pb 0.659137 -0.010739 0.007385
Cl -1.963498 0.348650 0.118555
Cl 0.850131 -0.196225 2.524946
Cl 1.058660 2.544730 -0.091585
12
Atoms
C 2.190888 3.475377 3.044226
N 2.826409 2.683369 2.151433
H 1.491537 4.322081 2.429676
H 2.955937 4.164515 3.653328
H 1.558395 2.905077 3.794397
H 3.340574 3.143990 1.295150
H 2.077491 1.983014 1.474292
H 3.411806 1.931553 2.533526
Pb 0.604850 -0.110519 0.682867
Cl -1.870900 0.488876 0.757567
Cl 1.438940 2.188857 1.473081
Cl 0.801007 0.354952 -1.838932
12
Atoms
C 2.209288 3.751316 2.360183
N 2.786152 2.476006 2.627536
H 1.497701 3.712294 1.455589
H 3.058927 4.445894 2.101010
H 1.606023 4.112919 3.215613
H 3.190605 2.076719 1.880101
H 2.045344 1.730159 2.826908
H 3.513602 2.352230 3.296701
Pb 0.742064 0.297582 -0.091372
Cl -1.778323 0.411723 0.366867
Cl 1.143989 -1.146761 2.190961
Cl 1.159576 2.591434 1.149533
12
Atoms
C 1.993213 2.911833 3.201170
N 2.914803 3.216145 2.013354
H 1.313745 3.798500 3.404961
H 2.616878 2.891099 4.046687
H 1.388851 1.999404 2.999457
H 3.544775 3.950404 2.030329
H 2.250229 3.506128 1.129722
H 3.549681 2.381990 1.683680
Pb 0.557494 -0.133981 0.256375
Cl -2.063630 0.189307 0.526790
Cl 1.027645 0.969306 2.551681
Cl 0.833342 1.999556 -1.238515
12
Atoms
C 2.078986 2.915377 3.108509
N 2.876727 3.168271 2.016671
H 1.345279 3.772042 3.417339
H 2.613998 2.691797 3.967374
H 1.297496 2.187714 3.045355
H 3.588564 4.093228 2.064802
H 2.260047 3.474966 1.018543
H 3.430931 2.355288 1.687212
Pb 0.631654 0.467631 -0.152768
Cl -1.970544 0.456187 -0.201226
Cl 0.986607 -1.915288 0.683162
Cl 0.926405 1.551807 2.279536
8
Atoms
C 2.856348 3.465525 2.882101
N 2.065567 2.498566 2.094128
H 3.535110 2.922596 3.560587
H 2.178424 4.101417 3.475260
H 3.449516 4.098951 2.201873
H 1.464495 1.844420 2.661628
H 2.631700 1.844694 1.490830
H 1.384889 2.928154 1.415175
8
Atoms
C 2.168755 2.736686 3.098775
N 2.842102 3.305397 2.167338
H 1.408762 3.406336 3.551017
H 2.743041 2.188552 3.921290
H 1.520492 1.990100 2.679951
H 3.517799 4.145312 2.397145
H 2.454511 3.707814 1.241415
H 3.468456 2.623262 1.497314
4
Atoms
Pb 0.869722 -0.030394 0.637312
Cl -1.730148 0.450439 0.831490
Cl 1.374459 2.125201 2.040268
Cl 1.114510 1.288498 -1.740666
8
Atoms
C 2.160863 3.618699 2.227128
N 2.831654 2.396885 2.808836
H 1.375755 3.484604 1.491816
H 2.935361 4.341120 1.751367
H 1.598859 4.223817 3.027571
H 3.286291 1.969446 2.028760
H 2.187281 1.866326 3.193068
H 3.436563 2.697386 3.565375
12
Atoms
C -1.580105 0.690481 4.118790
N -0.707754 0.772203 2.953302
H -2.164052 1.772341 4.101820
H -1.017677 0.850301 5.049569
H -2.350812 -0.046942 4.009104
H -0.015864 1.596468 2.982242
H -1.293331 0.737161 1.994324
H -0.033992 -0.023852 2.849235
Pb 1.454482 0.921002 0.025110
Cl -1.102102 0.849946 -0.251260
Cl 1.416050 -1.064595 1.819629
Cl 1.487689 2.690025 1.836681
4
Atoms
Pb 0.900865 0.288796 0.116545
Cl -1.804374 0.483228 0.261821
Cl 0.992729 -0.563813 2.589409
Cl 1.329815 2.793128 0.805389
12
Atoms
C -1.568704 -0.667878 3.758935
N -0.748878 0.059114 2.572251
H -2.197320 0.177576 4.163861
H -0.955302 -1.053537 4.570177
H -2.215111 -1.318649 3.397551
H -0.056851 0.726058 2.914896
H -1.220527 0.411142 1.902825
H 0.003540 -0.657126 2.157933
Pb 1.406509 1.348548 -0.008574
Cl -1.299640 1.455457 0.068604
Cl 1.443814 -1.175219 0.660234
Cl 1.423161 2.157626 2.561993
12
Atoms
C 2.056510 3.580086 2.774833
N 2.943735 2.528984 2.288507
H 1.427579 4.149373 1.890117
H 2.655117 4.324905 3.249270
H 1.372243 3.177437 3.556511
H 3.604160 2.863534 1.506815
H 2.449162 1.846630 1.726698
H 3.533424 2.060998 2.897521
Pb 0.665938 -0.046725 0.385644
Cl -1.970400 0.510997 0.829316
Cl 1.492489 1.377772 2.445961
Cl 1.031773 1.695058 -1.370442
12
Atoms
C 2.106187 3.766800 2.698905
N 2.876589 2.432067 2.445736
H 1.372885 3.918483 1.765709
H 2.709815 4.573515 2.803021
H 1.384039 3.464036 3.513544
H 3.612343 2.621223 1.564024
H 2.340024 1.545829 2.352542
H 3.601153 2.281338 3.290269
Pb 0.705715 -0.156880 0.428771
Cl -1.734591 0.291631 0.497060
Cl 1.274522 1.640993 2.298130
Cl 0.994180 1.712669 -1.645821
12
Atoms
C 2.142311 3.685654 2.295941
N 2.859064 2.392070 2.828184
H 1.494023 3.444025 1.601544
H 3.092462 4.434062 1.895946
H 1.696305 4.216456 3.231434
H 3.372314 1.975270 2.146625
H 2.181413 1.859811 3.220164
H 3.606798 2.622658 3.699376
Pb 0.856686 0.023433 0.290257
Cl -1.846611 0.296928 0.399160
Cl 1.152555 0.938513 2.686182
Cl 1.024908 2.426759 -0.615020
12
Atoms
C 2.138476 3.547406 2.917457
N 2.846057 2.540950 2.122830
H 1.593976 4.199850 2.339757
H 2.797171 4.311366 3.510075
H 1.374359 3.104410 3.743802
H 3.456484 3.093969 1.383634
H 2.253372 1.882761 1.485753
H 3.440286 1.863292 2.681407
Pb 0.699841 0.360076 -0.195726
Cl -2.070818 0.425394 -0.096714
Cl 0.813100 -1.594125 1.466864
Cl 0.655084 2.137761 1.820759
12
Atoms
C 2.208685 3.700188 2.534755
N 2.803234 2.375197 2.529746
H 1.601727 3.775740 1.768628
H 3.036788 4.565383 2.431872
H 1.509446 3.851943 3.595772
H 3.532883 2.244070 1.696752
H 2.106739 1.544773 2.562854
H 3.577835 2.151889 3.336163
Pb 0.856697 -0.034573 0.349247
Cl -1.742816 0.386136 0.545097
Cl 1.261153 1.344962 2.618312
Cl 1.145947 2.299844 -1.028193
12
Atoms
C -0.515868 4.324428 2.302737
N -0.047257 3.145262 1.762783
H -1.161815 4.810008 1.537484
H 0.210701 4.972021 2.507465
H -1.176439 4.159261 3.159109
H 0.570748 3.088373 0.836440
H -0.686859 2.362428 1.459106
H 0.766791 2.664126 2.431148
Pb 1.191939 -0.103071 0.372076
Cl -1.339439 0.399247 0.760226
Cl 1.887199 0.986697 2.798869
Cl 1.662127 2.244303 -0.740713
4
Atoms
Pb 0.838206 0.790804 0.166657
Cl -1.857840 0.581630 0.201216
Cl 1.000762 -1.670960 1.155556
Cl 0.964823 1.896522 2.521956
12
Atoms
C -1.504074 2.871669 3.445683
N -0.601784 2.062220 2.631740
H -2.104552 3.655844 3.022162
H -0.803298 3.354870 4.264240
H -2.131158 2.214568 3.996598
H 0.078655 2.676455 1.935465
H -1.113676 1.508882 1.723539
H 0.013813 1.413862 2.905651
Pb 1.391652 0.352738 0.143862
Cl -1.189406 0.326703 -0.007730
Cl 1.525283 -0.169215 2.710051
Cl 1.623634 2.921857 0.573794
12
Atoms
C -1.054984 3.719299 3.073861
N -0.350600 2.828613 2.220302
H -1.731882 4.325573 2.332963
H -0.332612 4.366420 3.627497
H -1.694168 3.323476 3.805126
H 0.216048 3.226558 1.433659
H -0.958918 2.079894 1.757783
H 0.231025 2.057923 2.695475
Pb 1.283491 0.171535 0.175542
Cl -1.339624 0.472482 0.387174
Cl 1.607677 0.304268 2.657030
Cl 1.526893 2.789965 -0.103678
4
Atoms
Pb 0.869902 0.044731 0.432591
Cl -1.808339 0.311432 0.636008
Cl 1.191352 1.201180 2.727741
Cl 1.091273 2.222294 -0.871958
8
Atoms
C 2.170664 3.631057 2.910570
N 2.845525 2.521965 2.266853
H 1.483597 4.089437 2.119758
H 2.796149 4.370825 3.334494
H 1.532381 3.360085 3.774601
H 3.396833 2.635419 1.537719
H 2.157930 1.704807 2.002551
H 3.341241 2.061917 3.068307
4
Atoms
Pb 0.783511 0.341684 0.014043
Cl -1.816523 0.674255 0.581480
Cl 1.217045 -0.612950 2.438059
Cl 1.090261 2.880730 0.795589
12
Atoms
C 2.065380 3.304514 3.154278
N 2.854482 2.962607 2.009775
H 1.345089 4.191076 2.840865
H 2.703443 3.502239 3.983385
H 1.386830 2.558078 3.270138
H 3.485735 3.789664 1.720539
H 2.312948 2.709911 1.022663
H 3.427000 2.086064 2.131562
Pb 0.516830 -0.044421 -0.135065
Cl -2.079450 0.124081 0.332495
Cl 0.978821 -0.826153 2.476311
Cl 0.909106 2.390149 0.460866
12
Atoms
C 2.156565 3.627893 3.022440
N 2.897196 2.571186 2.106895
H 1.641399 4.245492 2.317253
H 3.005542 4.260093 3.518493
H 1.608105 2.994360 3.589172
H 3.738063 2.974333 1.375200
H 2.349274 1.934411 1.648019
H 3.651084 2.011037 2.668706
Pb 0.704775 0.190486 -0.186809
Cl -1.885807 -0.081351 0.030509
Cl 1.079454 -1.225391 2.053561
Cl 0.872538 2.569509 1.156341
12
Atoms
C -1.462718 0.612852 4.194394
N -0.472291 0.566021 2.980189
H -2.044112 1.419802 4.304222
H -0.721414 0.444874 5.065983
H -2.046466 -0.364145 4.246733
H 0.170410 1.463872 2.997492
H -1.147247 0.804133 2.048917
H 0.032424 -0.233945 2.744759
Pb 1.374553 0.989197 -0.006071
Cl -1.300104 0.929992 -0.004888
Cl 1.573393 -1.180480 1.506925
Cl 1.678570 2.589779 1.915375
12
Atoms
C -1.295815 3.865966 2.662186
N -0.534280 2.697770 1.974440
H -1.915260 4.362438 1.883724
H -0.640843 4.574411 3.121669
H -1.953805 3.450664 3.444146
H 0.210542 2.999442 1.245605
H -1.152745 2.053606 1.522073
H 0.134731 2.062059 2.722554
Pb 1.403011 0.124177 0.445232
Cl -1.329480 0.255618 0.362090
Cl 1.450648 0.586858 2.941017
Cl 1.610276 2.676215 -0.137552
4
Atoms
Pb 0.134939 0.094135 0.152826
Cl 2.767340 0.232853 0.077164
Cl -0.138816 2.703617 -0.100291
Cl 0.070357 0.210233 2.786018
8
Atoms
C 2.076796 3.709564 2.603484
N 2.902046 2.516950 2.478909
H 1.358459 3.863721 1.800911
H 2.698307 4.642739 2.790858
H 1.377480 3.756174 3.446622
H 3.551301 2.466760 1.516441
H 2.282858 1.538906 2.353440
H 3.523789 2.238030 3.178869
4
Atoms
Pb 0.769422 0.101714 0.680203
Cl -1.744273 0.813213 0.951350
Cl 1.604976 1.857935 2.315381
Cl 1.069151 1.473627 -1.550573
12
Atoms
C -1.032269 1.757317 4.289435
N -0.354414 1.370093 3.139274
H -1.581892 2.742774 4.229638
H -0.297519 1.984112 5.199381
H -1.736685 0.985752 4.743301
H 0.193706 2.183246 2.672371
H -1.036077 1.380801 2.277005
H 0.245611 0.495792 3.074542
Pb 1.259730 0.642998 -0.103877
Cl -1.454163 0.799691 0.160355
Cl 1.432757 -0.764847 2.169319
Cl 1.635042 2.870895 1.191858
12
Atoms
C 2.089008 3.631511 2.686081
N 2.877565 2.562473 2.499690
H 1.507371 3.880082 1.793435
H 2.682792 4.679733 2.922278
H 1.310489 3.436547 3.585917
H 3.497360 2.543622 1.731879
H 2.411956 1.626347 2.258222
H 3.557724 2.178977 3.403183
Pb 0.633518 0.455337 -0.167928
Cl -1.955397 0.486195 -0.079704
Cl 0.805291 -1.915448 0.808869
Cl 0.787803 1.593893 2.258562
4
Atoms
Pb 0.944104 0.325804 0.125335
Cl -1.629821 0.477201 0.063253
Cl 0.905556 -0.310791 2.733466
Cl 1.247706 2.923572 0.586807
8
Atoms
C 2.164044 3.678571 2.557561
N 2.919481 2.415857 2.585249
H 1.420000 3.667067 1.704632
H 2.736880 4.515278 2.653979
H 1.498488 3.673442 3.511715
H 3.569627 2.374409 1.737281
H 2.422171 1.565338 2.577614
H 3.689813 2.312757 3.454762
12
Atoms
C 2.103647 3.729153 2.518951
N 2.901283 2.437676 2.720279
H 1.535860 3.734314 1.691301
H 3.063108 4.485809 2.379243
H 1.676168 3.990672 3.508627
H 3.330344 1.992856 1.901485
H 2.104552 1.697840 2.961082
H 3.550099 2.354677 3.539618
Pb 0.618884 0.158695 -0.200765
Cl -2.076774 0.250641 0.096531
Cl 1.039467 -1.036915 2.142831
Cl 0.795232 2.568038 0.751836
12
Atoms
C 2.148436 2.907334 3.157281
N 2.879774 3.131456 2.085861
H 1.370986 3.755412 3.341107
H 2.624238 2.635152 4.080740
H 1.441079 2.028479 2.874836
H 3.568715 3.953842 2.129848
H 2.399350 3.384225 1.128422
H 3.602357 2.253307 1.683605
Pb 0.771476 0.491608 -0.020032
Cl -1.877089 0.749028 0.018023
Cl 0.656465 -1.640001 1.681005
Cl 0.958647 2.374658 1.893823
12
Atoms
C 2.124919 3.504440 3.026043
N 2.976367 2.574334 2.190509
H 1.479369 4.170162 2.397343
H 2.853083 4.099842 3.705972
H 1.494930 2.970480 3.702374
H 3.749093 3.086596 1.488769
H 2.416828 1.937156 1.730752
H 3.758397 1.997758 2.802864
Pb 0.727134 0.578213 0.013946
Cl -1.786874 0.441787 -0.050054
Cl 0.892905 -1.914209 0.947908
Cl 0.948236 1.650341 2.357129
12
Atoms
C 2.176034 3.881189 2.797992
N 2.834675 2.488051 2.427535
H 1.544306 4.280182 1.977724
H 2.941576 4.456249 3.075357
H 1.552538 3.680512 3.686383
H 3.374155 2.472039 1.529331
H 2.133467 1.798071 2.047377
H 3.413976 1.980307 2.944696
Pb 0.652934 -0.161365 0.553662
Cl -1.868412 0.621030 0.924573
Cl 1.534723 1.522614 2.308500
Cl 0.986115 1.494985 -1.477201
8
Atoms
C 2.266164 3.331058 3.216014
N 2.831686 2.823020 2.025931
H 1.598511 4.138901 2.972400
H 2.992749 3.601689 3.944537
H 1.563174 2.511575 3.659583
H 3.556539 3.378554 1.408934
H 2.350537 2.481837 1.221165
H 3.608616 1.897731 2.083026
12
Atoms
C 2.036575 3.585843 2.271920
N 2.949044 2.590173 2.786192
H 1.387346 3.075512 1.442756
H 2.702216 4.379033 1.840418
H 1.404254 3.988270 3.113048
H 3.717527 2.179174 2.068446
H 2.538324 1.790213 3.256323
H 3.543691 2.872305 3.655687
Pb 0.814075 -0.005440 0.226815
Cl -1.809213 0.222284 0.503967
Cl 1.175619 0.851902 2.807748
Cl 0.995904 2.579483 -0.774094
8
Atoms
C 2.094513 3.403949 3.058741
N 2.962059 2.774324 2.090910
H 1.603934 4.253677 2.805693
H 2.699683 3.672093 4.051177
H 1.417805 2.515653 3.429628
H 3.652614 3.552236 1.610752
H 2.613506 2.443020 1.208497
H 3.678575 1.974757 2.289031
12
Atoms
C 2.095252 2.704901 3.033409
N 2.947508 3.262179 2.094797
H 1.504627 3.447576 3.541345
H 2.615676 2.191426 3.845607
H 1.267842 2.006025 2.553046
H 3.669207 3.921771 2.525355
H 2.435350 3.761171 1.385782
H 3.637731 2.420825 1.598988
Pb 0.612400 -0.303693 0.083595
Cl -2.121087 -0.005875 0.103393
Cl 0.871790 0.630578 2.505522
Cl 0.725555 2.206815 -0.993009
12
Atoms
C 2.229712 3.668896 3.108603
N 2.821945 2.625045 2.078144
H 1.766132 4.464932 2.560234
H 3.136506 4.141728 3.604812
H 1.748620 3.124349 3.650127
H 3.538593 3.223589 1.319717
H 2.149081 2.268796 1.447613
H 3.418831 1.909386 2.271171
Pb 0.713210 -0.144186 0.137828
Cl -1.861048 -0.136432 0.322721
Cl 0.855464 0.570309 2.646636
Cl 0.718260 2.325927 -0.760027
4
Atoms
Pb 0.907057 0.231065 0.247921
Cl -1.639026 0.129911 0.091996
Cl 0.927493 0.597125 2.885740
Cl 1.021880 2.778201 -0.294278
12
Atoms
C -1.459323 -0.660603 3.939607
N -0.614908 -0.219706 2.804089
H -2.147398 -0.010952 4.384132
H -0.702585 -1.012696 4.694359
H -1.926408 -1.628826 3.544500
H -0.017647 0.546398 2.990608
H -1.256286 0.106490 2.021598
H 0.067412 -0.968292 2.266404
Pb 1.363076 1.341857 0.079758
Cl -1.280829 1.190062 0.133774
Cl 1.502129 -1.248294 0.901203
Cl 1.299118 2.133111 2.570146
4
Atoms
Pb 0.913995 0.594203 -0.023070
Cl -1.648708 0.743994 0.041588
Cl 1.074404 -1.304395 1.738277
Cl 1.143912 2.393330 1.970495
8
Atoms
C 2.216233 3.763512 2.647855
N 2.827714 2.320230 2.415961
H 1.486242 4.045073 1.758143
H 3.000627 4.596372 2.606023
H 1.647442 3.937704 3.498554
H 3.352116 2.289030 1.477114
H 2.213234 1.769793 2.455934
H 3.488398 2.127404 3.154340
12
Atoms
C 2.856348 3.465525 2.882101
N 2.065567 2.498566 2.094128
H 3.535110 2.922596 3.560587
H 2.178424 4.101417 3.475260
H 3.449516 4.098951 2.201873
H 1.464495 1.844420 2.661628
H 2.631700 1.844694 1.490830
H 1.384889 2.928154 1.415175
Pb 0.134939 0.094135 0.152826
Cl 2.767340 0.232853 0.077164
Cl -0.138816 2.703617 -0.100291
Cl 0.070357 0.210233 2.786018
4
Atoms
Pb 0.905874 0.233694 0.171334
Cl -1.659279 0.241397 0.554756
Cl 1.288102 -0.123877 2.835905
Cl 1.200372 2.836846 0.408664
12
Atoms
C -0.947565 4.431424 1.255003
N -0.428142 3.142185 1.080684
H -1.645917 4.591694 0.605436
H -0.262638 5.207572 1.355116
H -1.538582 4.392639 2.308470
H 0.324982 3.053881 0.343545
H -1.050646 2.398583 1.081475
H 0.402674 2.819582 1.890705
Pb 1.298262 0.029340 0.740528
Cl -1.316404 0.260763 0.954454
Cl 1.735987 1.496665 2.764749
Cl 1.482064 1.860235 -0.965017
12
Atoms
C 2.159530 2.706911 3.229546
N 2.852395 3.386070 2.058939
H 1.418962 3.642934 3.623786
H 2.757144 2.379187 3.925619
H 1.506148 1.925233 2.832525
H 3.517866 4.195847 2.263514
H 2.232723 3.883001 1.325763
H 3.524245 2.646654 1.526881
Pb 0.767128 0.037893 0.800521
Cl -1.922916 0.679212 0.825544
Cl 1.480719 2.422467 1.563351
Cl 0.844949 0.658231 -1.844670
8
Atoms
C 2.254365 3.646515 3.106417
N 2.779325 2.486304 2.117713
H 1.644296 4.231979 2.564301
H 3.008838 4.080533 3.467756
H 1.739313 3.015994 3.969583
H 3.266759 2.810892 1.437628
H 2.055457 1.880339 1.776404
H 3.305352 1.856850 2.697846
12
Atoms
C 2.195165 3.160579 3.243944
N 2.882096 2.987314 2.003722
H 1.673159 4.089993 3.083132
H 2.889471 3.278906 4.030155
H 1.506349 2.317974 3.493844
H 3.525070 3.783515 1.688563
H 2.287032 2.696885 1.173779
H 3.601266 2.061736 2.042678
Pb 0.756713 -0.064299 0.046512
Cl -2.006623 0.088073 0.157787
Cl 0.927881 0.313348 2.664484
Cl 0.885156 2.552844 -0.325095
12
Atoms
C 2.161125 3.738237 2.555457
N 2.771594 2.362777 2.500250
H 1.513031 3.961209 1.712898
H 2.950464 4.618848 2.481821
H 1.506063 3.792044 3.509890
H 3.359378 2.200584 1.583749
H 2.033947 1.729753 2.590690
H 3.469932 2.191744 3.245347
Pb 0.844915 0.563581 -0.081746
Cl -1.741435 0.830175 -0.186750
Cl 0.815792 -1.784834 1.275372
Cl 1.138685 1.976252 2.244400
12
Atoms
C 2.065846 2.722038 3.117857
N 2.946883 3.441210 2.147780
H 1.537417 3.461553 3.700165
H 2.759901 2.223547 3.703807
H 1.383050 2.094304 2.582050
H 3.531162 4.115279 2.511486
H 2.487536 3.999642 1.278062
H 3.494370 2.770741 1.494142
Pb 0.784253 0.093722 -0.089311
Cl -1.995713 0.171540 -0.137959
Cl 0.694521 -0.781214 2.502682
Cl 0.735349 2.797709 0.693582
