94

C          9.66375        7.24338        4.53061
N          8.89266        6.28177        3.70426
H         10.30683        6.68879        5.21779
H          8.96721        7.86481        5.09810
H         10.27374        7.87224        3.87815
H          8.27488        5.64240        4.25890
H          9.47577        5.64107        3.12213
H          8.24489        6.72644        3.01901
Pb         6.93148        3.79891        1.86676
Cl         9.56326        3.93575        1.74715
Cl         6.62460        6.40241        1.54848
Cl         6.93168        3.98813        4.50869
C          6.97147       -2.83367        4.17972
N          6.29240       -2.87049        2.86076
H          6.63654       -3.68404        4.77806
H          6.71397       -1.90142        4.68765
H          8.05232       -2.88786        4.03107
H          5.24742       -2.81703        2.91746
H          6.47960       -3.72898        2.29743
H          6.55062       -2.08794        2.22213
Pb         4.41288       -2.98875       -0.27622
Cl         6.05984       -4.90073        0.49267
Cl         6.12356       -1.06385        0.30859
Cl         3.26186       -2.87064        2.10638
S          4.59302        2.06782       -1.25497
C          2.72203        2.05504       -1.04142
C          4.67981        3.37005       -2.61254
O          5.11297        2.91742        0.10403
H          2.52265        1.41605       -0.18049
H          5.73997        3.57707       -2.76240
H          2.41600        3.08009       -0.82418
H          2.23647        1.66390       -1.93806
H          4.22167        2.99732       -3.53119
H          4.17508        4.26164       -2.23586
S          9.02643        2.98013       -1.39452
C          8.06544        1.85558       -2.55996
C          8.69938        4.60433       -2.28969
O          8.00555        3.08418       -0.05810
H          8.06389        0.87021       -2.09273
H          9.10570        5.38737       -1.64859
H          7.04682        2.24415       -2.61483
H          8.54412        1.82118       -3.54098
H          9.18695        4.60842       -3.26693
H          7.61643        4.71393       -2.37200
S          3.29686        3.07874        3.16390
C          2.63999        1.31886        3.03089
C          3.14005        3.26259        5.03150
O          4.95536        2.86974        2.95243
H          2.78569        1.02194        1.99172
H          3.60745        4.21617        5.27943
H          3.25228        0.69653        3.68617
H          1.58271        1.28273        3.30215
H          2.08977        3.25368        5.33078
H          3.70158        2.44299        5.48374
S          4.02147        5.95499       -1.11851
C          3.15166        7.25279       -0.06709
C          5.36474        7.06826       -1.82743
O          4.86010        5.05186        0.03044
H          2.40132        6.71498        0.51344
H          6.03818        6.41174       -2.37944
H          3.90182        7.68238        0.59947
H          2.68521        8.01001       -0.70094
H          4.92928        7.82289       -2.48594
H          5.89029        7.51658       -0.98222
H          3.25230        0.69650        3.68620
H          2.78570        1.02190        1.99170
C          2.64000        1.31890        3.03090
H          1.58270        1.28270        3.30220
O          4.95540        2.86970        2.95240
S          3.29690        3.07870        3.16390
H          3.70160        2.44300        5.48370
C          3.14010        3.26260        5.03150
H          2.08980        3.25370        5.33080
H          3.60750        4.21620        5.27940
H         10.08655        1.81235        3.23076
H         10.08655        1.81235        3.23076
H         10.31652        0.76749        1.79887
H         10.31652        0.76749        1.79887
C         10.06403        0.78595        2.85966
C         10.06403        0.78595        2.85966
H         10.72563        0.12987        3.42942
H         10.72563        0.12987        3.42942
O          7.42430        1.45178        2.25903
O          7.42430        1.45178        2.25903
S          8.28105        0.19180        2.97839
S          8.28105        0.19180        2.97839
H          8.25973        1.57357        4.98828
H          8.25973        1.57357        4.98828
C          8.03088        0.52030        4.81574
C          8.03088        0.52030        4.81574
H          8.66396       -0.13956        5.41288
H          8.66396       -0.13956        5.41288
H          6.97528        0.33083        5.01342
H          6.97528        0.33083        5.01342
