23
Atoms
C 2.821971 3.493173 2.716929
N 2.031893 2.485380 2.005967
H 3.493737 3.003675 3.431461
H 2.156449 4.174155 3.259759
H 3.419280 4.070497 2.001994
H 1.424368 1.881241 2.639320
H 2.617127 1.787701 1.451958
H 1.353302 2.890520 1.291746
Pb 0.076381 -0.028453 0.194294
Cl 3.155249 0.280169 0.271961
Cl -0.042158 3.024398 -0.116277
Cl 0.135544 0.483655 3.245443
Cl -2.992571 -0.324521 0.169239
Cl 0.032118 -0.551381 -2.834815
Cl 0.167907 -3.080463 0.551657
N -1.884966 -2.527607 -1.578982
C -2.664881 -3.549172 -2.281400
H -2.474954 -1.829497 -1.031708
H -1.279571 -1.925402 -2.215561
H -3.259633 -4.123288 -1.561779
H -1.991792 -4.230944 -2.813775
H -3.338231 -3.073756 -3.003955
H -1.204879 -2.923566 -0.859634
23
Atoms
C 2.821971 3.493173 2.716929
N 2.031893 2.485380 2.005967
H 3.493737 3.003675 3.431461
H 2.156449 4.174155 3.259759
H 3.419280 4.070497 2.001994
H 1.424368 1.881241 2.639320
H 2.617127 1.787701 1.451958
H 1.353302 2.890520 1.291746
Pb 0.059661 0.029237 0.153555
Cl 3.203789 0.276995 0.315486
Cl -0.031788 3.013782 -0.159177
Cl 0.149262 0.507842 3.214664
Cl -2.978749 -0.365226 0.127751
Cl -0.003248 -0.502150 -2.809873
Cl 0.236834 -3.065602 0.496451
N -1.884966 -2.527607 -1.578982
C -2.664881 -3.549172 -2.281400
H -2.474954 -1.829497 -1.031708
H -1.279571 -1.925402 -2.215561
H -3.259633 -4.123288 -1.561779
H -1.991792 -4.230944 -2.813775
H -3.338231 -3.073756 -3.003955
H -1.204879 -2.923566 -0.859634
23
Atoms
C 2.821971 3.493173 2.716929
N 2.031893 2.485380 2.005967
H 3.493737 3.003675 3.431461
H 2.156449 4.174155 3.259759
H 3.419280 4.070497 2.001994
H 1.424368 1.881241 2.639320
H 2.617127 1.787701 1.451958
H 1.353302 2.890520 1.291746
Pb 0.083846 -0.020590 0.203829
Cl 3.143850 0.268085 0.275613
Cl -0.027562 3.047476 -0.120885
Cl 0.133282 0.490303 3.256386
Cl -3.003176 -0.305225 0.156770
Cl 0.015600 -0.536861 -2.834285
Cl 0.182442 -3.094847 0.547449
N -1.884966 -2.527607 -1.578982
C -2.664881 -3.549172 -2.281400
H -2.474954 -1.829497 -1.031708
H -1.279571 -1.925402 -2.215561
H -3.259633 -4.123288 -1.561779
H -1.991792 -4.230944 -2.813775
H -3.338231 -3.073756 -3.003955
H -1.204879 -2.923566 -0.859634
23
Atoms
C 2.821971 3.493173 2.716929
N 2.031893 2.485380 2.005967
H 3.493737 3.003675 3.431461
H 2.156449 4.174155 3.259759
H 3.419280 4.070497 2.001994
H 1.424368 1.881241 2.639320
H 2.617127 1.787701 1.451958
H 1.353302 2.890520 1.291746
Pb 0.081254 -0.034771 0.238760
Cl 3.121317 0.245915 0.277306
Cl -0.009953 3.026775 -0.127725
Cl 0.140899 0.515531 3.240287
Cl -3.006685 -0.292563 0.175673
Cl 0.044561 -0.517572 -2.855436
Cl 0.202499 -3.098124 0.532653
N -1.884966 -2.527607 -1.578982
C -2.664881 -3.549172 -2.281400
H -2.474954 -1.829497 -1.031708
H -1.279571 -1.925402 -2.215561
H -3.259633 -4.123288 -1.561779
H -1.991792 -4.230944 -2.813775
H -3.338231 -3.073756 -3.003955
H -1.204879 -2.923566 -0.859634
23
Atoms
C 2.821971 3.493173 2.716929
N 2.031893 2.485380 2.005967
H 3.493737 3.003675 3.431461
H 2.156449 4.174155 3.259759
H 3.419280 4.070497 2.001994
H 1.424368 1.881241 2.639320
H 2.617127 1.787701 1.451958
H 1.353302 2.890520 1.291746
Pb 0.145464 -0.018794 0.181546
Cl 3.207685 0.195987 0.282892
Cl 0.050933 3.029106 -0.143427
Cl 0.058883 0.573066 3.205549
Cl -2.927876 -0.393557 0.143272
Cl 0.011890 -0.454799 -2.789349
Cl 0.136831 -3.118452 0.544137
N -1.884966 -2.527607 -1.578982
C -2.664881 -3.549172 -2.281400
H -2.474954 -1.829497 -1.031708
H -1.279571 -1.925402 -2.215561
H -3.259633 -4.123288 -1.561779
H -1.991792 -4.230944 -2.813775
H -3.338231 -3.073756 -3.003955
H -1.204879 -2.923566 -0.859634
23
Atoms
C 2.821971 3.493173 2.716929
N 2.031893 2.485380 2.005967
H 3.493737 3.003675 3.431461
H 2.156449 4.174155 3.259759
H 3.419280 4.070497 2.001994
H 1.424368 1.881241 2.639320
H 2.617127 1.787701 1.451958
H 1.353302 2.890520 1.291746
Pb 0.087665 -0.058263 0.249896
Cl 3.180665 0.284284 0.292479
Cl -0.009206 3.015091 -0.165681
Cl 0.110725 0.513897 3.287868
Cl -2.987454 -0.308247 0.121877
Cl -0.009057 -0.525869 -2.843661
Cl 0.218108 -3.118611 0.573039
N -1.884966 -2.527607 -1.578982
C -2.664881 -3.549172 -2.281400
H -2.474954 -1.829497 -1.031708
H -1.279571 -1.925402 -2.215561
H -3.259633 -4.123288 -1.561779
H -1.991792 -4.230944 -2.813775
H -3.338231 -3.073756 -3.003955
H -1.204879 -2.923566 -0.859634
23
Atoms
C 2.821971 3.493173 2.716929
N 2.031893 2.485380 2.005967
H 3.493737 3.003675 3.431461
H 2.156449 4.174155 3.259759
H 3.419280 4.070497 2.001994
H 1.424368 1.881241 2.639320
H 2.617127 1.787701 1.451958
H 1.353302 2.890520 1.291746
Pb 0.083239 0.003414 0.237376
Cl 3.160780 0.331292 0.212676
Cl -0.054130 3.057305 -0.135497
Cl 0.201930 0.485308 3.308698
Cl -2.940224 -0.300943 0.111918
Cl -0.041817 -0.507875 -2.867378
Cl 0.206850 -3.100157 0.617235
N -1.884966 -2.527607 -1.578982
C -2.664881 -3.549172 -2.281400
H -2.474954 -1.829497 -1.031708
H -1.279571 -1.925402 -2.215561
H -3.259633 -4.123288 -1.561779
H -1.991792 -4.230944 -2.813775
H -3.338231 -3.073756 -3.003955
H -1.204879 -2.923566 -0.859634
23
Atoms
C 2.821971 3.493173 2.716929
N 2.031893 2.485380 2.005967
H 3.493737 3.003675 3.431461
H 2.156449 4.174155 3.259759
H 3.419280 4.070497 2.001994
H 1.424368 1.881241 2.639320
H 2.617127 1.787701 1.451958
H 1.353302 2.890520 1.291746
Pb 0.112092 -0.008235 0.254288
Cl 3.186425 0.284579 0.328021
Cl 0.012832 3.048107 -0.145907
Cl 0.157261 0.475133 3.259834
Cl -2.985534 -0.340635 0.200139
Cl 0.040981 -0.494421 -2.871440
Cl 0.182132 -3.124694 0.572689
N -1.884966 -2.527607 -1.578982
C -2.664881 -3.549172 -2.281400
H -2.474954 -1.829497 -1.031708
H -1.279571 -1.925402 -2.215561
H -3.259633 -4.123288 -1.561779
H -1.991792 -4.230944 -2.813775
H -3.338231 -3.073756 -3.003955
H -1.204879 -2.923566 -0.859634
23
Atoms
C 2.821971 3.493173 2.716929
N 2.031893 2.485380 2.005967
H 3.493737 3.003675 3.431461
H 2.156449 4.174155 3.259759
H 3.419280 4.070497 2.001994
H 1.424368 1.881241 2.639320
H 2.617127 1.787701 1.451958
H 1.353302 2.890520 1.291746
Pb 0.089422 -0.049802 0.193454
Cl 3.060917 0.263764 0.239589
Cl -0.097467 3.026544 -0.098405
Cl 0.221913 0.592837 3.335561
Cl -2.930796 -0.224378 0.203325
Cl 0.010709 -0.484707 -2.805181
Cl 0.250110 -3.169604 0.538106
N -1.884966 -2.527607 -1.578982
C -2.664881 -3.549172 -2.281400
H -2.474954 -1.829497 -1.031708
H -1.279571 -1.925402 -2.215561
H -3.259633 -4.123288 -1.561779
H -1.991792 -4.230944 -2.813775
H -3.338231 -3.073756 -3.003955
H -1.204879 -2.923566 -0.859634
23
Atoms
C 2.821971 3.493173 2.716929
N 2.031893 2.485380 2.005967
H 3.493737 3.003675 3.431461
H 2.156449 4.174155 3.259759
H 3.419280 4.070497 2.001994
H 1.424368 1.881241 2.639320
H 2.617127 1.787701 1.451958
H 1.353302 2.890520 1.291746
Pb 0.114131 -0.071353 0.162994
Cl 3.218142 0.300438 0.289294
Cl -0.011881 3.079963 -0.072477
Cl 0.144620 0.416152 3.216522
Cl -2.971130 -0.238527 0.213372
Cl 0.086724 -0.469784 -2.789044
Cl 0.188673 -3.159916 0.498766
N -1.884966 -2.527607 -1.578982
C -2.664881 -3.549172 -2.281400
H -2.474954 -1.829497 -1.031708
H -1.279571 -1.925402 -2.215561
H -3.259633 -4.123288 -1.561779
H -1.991792 -4.230944 -2.813775
H -3.338231 -3.073756 -3.003955
H -1.204879 -2.923566 -0.859634
23
Atoms
C 2.891451 3.575826 2.778059
N 2.089424 2.555032 2.059582
H 3.558472 3.076137 3.484362
H 2.218727 4.247132 3.316750
H 3.479382 4.144646 2.054078
H 1.492676 1.958835 2.673590
H 2.651801 1.866309 1.511973
H 1.418732 2.942131 1.359080
Pb 0.094699 -0.009018 0.229954
Cl 2.696240 0.144135 0.212287
Cl -0.090172 2.574319 -0.141545
Cl 0.052136 0.368353 2.807767
Cl -2.512617 -0.156989 0.240982
Cl 0.103198 -0.331042 -2.351943
Cl 0.271373 -2.567288 0.597775
N -1.944119 -2.595072 -1.633806
C -2.725500 -3.643046 -2.335777
H -2.519034 -1.905375 -1.102173
H -1.352579 -2.002501 -2.255638
H -3.308461 -4.206070 -1.603344
H -2.038395 -4.314606 -2.855607
H -3.396098 -3.169682 -3.056568
H -1.270867 -2.959590 -0.921865
23
Atoms
C 2.891451 3.575826 2.778059
N 2.089424 2.555032 2.059582
H 3.558472 3.076137 3.484362
H 2.218727 4.247132 3.316750
H 3.479382 4.144646 2.054078
H 1.492676 1.958835 2.673590
H 2.651801 1.866309 1.511973
H 1.418732 2.942131 1.359080
Pb 0.082087 -0.014270 0.220394
Cl 2.691089 0.138863 0.207243
Cl -0.083142 2.571506 -0.135116
Cl 0.060245 0.337990 2.804763
Cl -2.538555 -0.149961 0.227971
Cl 0.107759 -0.349883 -2.361919
Cl 0.244278 -2.590947 0.584580
N -1.944119 -2.595072 -1.633806
C -2.725500 -3.643046 -2.335777
H -2.519034 -1.905375 -1.102173
H -1.352579 -2.002501 -2.255638
H -3.308461 -4.206070 -1.603344
H -2.038395 -4.314606 -2.855607
H -3.396098 -3.169682 -3.056568
H -1.270867 -2.959590 -0.921865
23
Atoms
C 2.891451 3.575826 2.778059
N 2.089424 2.555032 2.059582
H 3.558472 3.076137 3.484362
H 2.218727 4.247132 3.316750
H 3.479382 4.144646 2.054078
H 1.492676 1.958835 2.673590
H 2.651801 1.866309 1.511973
H 1.418732 2.942131 1.359080
Pb 0.070507 -0.016889 0.210559
Cl 2.682459 0.131577 0.202115
Cl -0.095084 2.569585 -0.154262
Cl 0.044033 0.328389 2.802241
Cl -2.540036 -0.167872 0.220231
Cl 0.099012 -0.366216 -2.379906
Cl 0.240299 -2.604935 0.576462
N -1.944119 -2.595072 -1.633806
C -2.725500 -3.643046 -2.335777
H -2.519034 -1.905375 -1.102173
H -1.352579 -2.002501 -2.255638
H -3.308461 -4.206070 -1.603344
H -2.038395 -4.314606 -2.855607
H -3.396098 -3.169682 -3.056568
H -1.270867 -2.959590 -0.921865
23
Atoms
C 2.891451 3.575826 2.778059
N 2.089424 2.555032 2.059582
H 3.558472 3.076137 3.484362
H 2.218727 4.247132 3.316750
H 3.479382 4.144646 2.054078
H 1.492676 1.958835 2.673590
H 2.651801 1.866309 1.511973
H 1.418732 2.942131 1.359080
Pb 0.105475 -0.001452 0.235244
Cl 2.691034 0.146750 0.209249
Cl -0.077108 2.577042 -0.115474
Cl 0.044918 0.345459 2.828291
Cl -2.501381 -0.121730 0.251960
Cl 0.156121 -0.328451 -2.354371
Cl 0.282234 -2.602038 0.588758
N -1.944119 -2.595072 -1.633806
C -2.725500 -3.643046 -2.335777
H -2.519034 -1.905375 -1.102173
H -1.352579 -2.002501 -2.255638
H -3.308461 -4.206070 -1.603344
H -2.038395 -4.314606 -2.855607
H -3.396098 -3.169682 -3.056568
H -1.270867 -2.959590 -0.921865
23
Atoms
C 2.891451 3.575826 2.778059
N 2.089424 2.555032 2.059582
H 3.558472 3.076137 3.484362
H 2.218727 4.247132 3.316750
H 3.479382 4.144646 2.054078
H 1.492676 1.958835 2.673590
H 2.651801 1.866309 1.511973
H 1.418732 2.942131 1.359080
Pb 0.141423 -0.003418 0.258291
Cl 2.719601 0.149975 0.257360
Cl -0.041993 2.625659 -0.120464
Cl 0.046834 0.403520 2.817247
Cl -2.507903 -0.144634 0.294962
Cl 0.119221 -0.301066 -2.374403
Cl 0.244159 -2.560969 0.597325
N -1.944119 -2.595072 -1.633806
C -2.725500 -3.643046 -2.335777
H -2.519034 -1.905375 -1.102173
H -1.352579 -2.002501 -2.255638
H -3.308461 -4.206070 -1.603344
H -2.038395 -4.314606 -2.855607
H -3.396098 -3.169682 -3.056568
H -1.270867 -2.959590 -0.921865
23
Atoms
C 2.891451 3.575826 2.778059
N 2.089424 2.555032 2.059582
H 3.558472 3.076137 3.484362
H 2.218727 4.247132 3.316750
H 3.479382 4.144646 2.054078
H 1.492676 1.958835 2.673590
H 2.651801 1.866309 1.511973
H 1.418732 2.942131 1.359080
Pb 0.166090 0.001004 0.225868
Cl 2.727189 0.182493 0.243518
Cl -0.035051 2.577536 -0.149962
Cl 0.119005 0.371181 2.896710
Cl -2.465434 -0.062646 0.331905
Cl 0.130449 -0.274811 -2.241120
Cl 0.264507 -2.534377 0.651350
N -1.944119 -2.595072 -1.633806
C -2.725500 -3.643046 -2.335777
H -2.519034 -1.905375 -1.102173
H -1.352579 -2.002501 -2.255638
H -3.308461 -4.206070 -1.603344
H -2.038395 -4.314606 -2.855607
H -3.396098 -3.169682 -3.056568
H -1.270867 -2.959590 -0.921865
23
Atoms
C 2.891451 3.575826 2.778059
N 2.089424 2.555032 2.059582
H 3.558472 3.076137 3.484362
H 2.218727 4.247132 3.316750
H 3.479382 4.144646 2.054078
H 1.492676 1.958835 2.673590
H 2.651801 1.866309 1.511973
H 1.418732 2.942131 1.359080
Pb 0.108296 0.033819 0.271723
Cl 2.721296 0.231495 0.289259
Cl -0.078583 2.610348 -0.093474
Cl 0.045533 0.420072 2.861875
Cl -2.473618 -0.135840 0.292985
Cl 0.183448 -0.284469 -2.332226
Cl 0.322624 -2.586145 0.670481
N -1.944119 -2.595072 -1.633806
C -2.725500 -3.643046 -2.335777
H -2.519034 -1.905375 -1.102173
H -1.352579 -2.002501 -2.255638
H -3.308461 -4.206070 -1.603344
H -2.038395 -4.314606 -2.855607
H -3.396098 -3.169682 -3.056568
H -1.270867 -2.959590 -0.921865
23
Atoms
C 2.891451 3.575826 2.778059
N 2.089424 2.555032 2.059582
H 3.558472 3.076137 3.484362
H 2.218727 4.247132 3.316750
H 3.479382 4.144646 2.054078
H 1.492676 1.958835 2.673590
H 2.651801 1.866309 1.511973
H 1.418732 2.942131 1.359080
Pb 0.225085 0.062600 0.235009
Cl 2.795371 0.288125 0.354548
Cl -0.044995 2.689263 -0.140241
Cl 0.201892 0.330498 2.813589
Cl -2.412208 -0.126925 0.342184
Cl 0.225734 -0.324788 -2.252553
Cl 0.243100 -2.566407 0.682424
N -1.944119 -2.595072 -1.633806
C -2.725500 -3.643046 -2.335777
H -2.519034 -1.905375 -1.102173
H -1.352579 -2.002501 -2.255638
H -3.308461 -4.206070 -1.603344
H -2.038395 -4.314606 -2.855607
H -3.396098 -3.169682 -3.056568
H -1.270867 -2.959590 -0.921865
23
Atoms
C 2.891451 3.575826 2.778059
N 2.089424 2.555032 2.059582
H 3.558472 3.076137 3.484362
H 2.218727 4.247132 3.316750
H 3.479382 4.144646 2.054078
H 1.492676 1.958835 2.673590
H 2.651801 1.866309 1.511973
H 1.418732 2.942131 1.359080
Pb 0.105946 0.001067 0.297682
Cl 2.793635 0.242925 0.312062
Cl -0.086369 2.651665 -0.057358
Cl 0.049934 0.350966 2.901441
Cl -2.528761 -0.110717 0.322606
Cl 0.179022 -0.267778 -2.354202
Cl 0.359419 -2.490642 0.615604
N -1.944119 -2.595072 -1.633806
C -2.725500 -3.643046 -2.335777
H -2.519034 -1.905375 -1.102173
H -1.352579 -2.002501 -2.255638
H -3.308461 -4.206070 -1.603344
H -2.038395 -4.314606 -2.855607
H -3.396098 -3.169682 -3.056568
H -1.270867 -2.959590 -0.921865
23
Atoms
C 2.891451 3.575826 2.778059
N 2.089424 2.555032 2.059582
H 3.558472 3.076137 3.484362
H 2.218727 4.247132 3.316750
H 3.479382 4.144646 2.054078
H 1.492676 1.958835 2.673590
H 2.651801 1.866309 1.511973
H 1.418732 2.942131 1.359080
Pb 0.145418 0.076194 0.263922
Cl 2.738825 0.241879 0.312090
Cl -0.045403 2.696099 -0.044826
Cl 0.216237 0.348070 2.975488
Cl -2.389251 -0.120230 0.397831
Cl 0.165132 -0.364384 -2.371747
Cl 0.277671 -2.461393 0.704528
N -1.944119 -2.595072 -1.633806
C -2.725500 -3.643046 -2.335777
H -2.519034 -1.905375 -1.102173
H -1.352579 -2.002501 -2.255638
H -3.308461 -4.206070 -1.603344
H -2.038395 -4.314606 -2.855607
H -3.396098 -3.169682 -3.056568
H -1.270867 -2.959590 -0.921865
12
Atoms
C 2.905719 3.576013 2.873338
N 2.134625 2.614408 2.046990
H 3.548796 3.021424 3.560517
H 2.209179 4.197444 3.440826
H 3.515705 4.204875 2.220874
H 1.516852 1.975028 2.601630
H 2.717740 1.973704 1.464858
H 1.486857 3.059076 1.361735
Pb 0.185789 0.131547 0.209487
Cl 2.758188 0.268387 0.089874
Cl -0.183078 2.735046 -0.108798
Cl 0.181488 0.320768 2.851419
12
Atoms
C 2.905719 3.576013 2.873338
N 2.134625 2.614408 2.046990
H 3.548796 3.021424 3.560517
H 2.209179 4.197444 3.440826
H 3.515705 4.204875 2.220874
H 1.516852 1.975028 2.601630
H 2.717740 1.973704 1.464858
H 1.486857 3.059076 1.361735
Pb 0.086051 0.131547 0.209487
Cl 2.902334 0.268387 0.089874
Cl -0.059902 2.735046 -0.108798
Cl 0.111729 0.320768 2.851419
12
Atoms
C -0.394281 0.276013 -0.426662
N -1.165380 -0.685592 -1.253010
H 0.248796 -0.278576 0.260517
H -1.090820 0.897444 0.140826
H 0.215705 0.904875 -1.079130
H -1.783150 -1.324970 -0.698370
H -0.582260 -1.326300 -1.835140
H -1.813140 -0.240924 -1.938260
Pb -2.974530 -2.987890 -2.953930
Cl -0.471630 -2.944990 -3.133910
Cl -3.379440 -0.506106 -3.275620
Cl -3.277680 -3.166810 -0.474160
12
Atoms
C 2.905719 3.576013 2.873338
N 2.134625 2.614408 2.046990
H 3.548796 3.021424 3.560517
H 2.209179 4.197444 3.440826
H 3.515705 4.204875 2.220874
H 1.516852 1.975028 2.601630
H 2.717740 1.973704 1.464858
H 1.486857 3.059076 1.361735
Pb 0.108626 0.131547 0.209487
Cl 2.393401 0.268387 0.089874
Cl 0.050164 2.735046 -0.108798
Cl -0.158586 0.320768 2.851419
12
Atoms
C 2.905719 3.576013 2.873338
N 2.134625 2.614408 2.046990
H 3.548796 3.021424 3.560517
H 2.209179 4.197444 3.440826
H 3.515705 4.204875 2.220874
H 1.516852 1.975028 2.601630
H 2.717740 1.973704 1.464858
H 1.486857 3.059076 1.361735
Pb 0.414987 0.131547 0.209487
Cl 3.286120 0.268387 0.089874
Cl 0.214503 2.735046 -0.108798
Cl 0.955877 0.320768 2.851419
12
Atoms
C -0.394281 0.276013 -0.426662
N -1.165380 -0.685592 -1.253010
H 0.248796 -0.278576 0.260517
H -1.090820 0.897444 0.140826
H 0.215705 0.904875 -1.079130
H -1.783150 -1.324970 -0.698370
H -0.582260 -1.326300 -1.835140
H -1.813140 -0.240924 -1.938260
Pb -2.525830 -2.689980 -3.007730
Cl -0.036539 -2.858990 -2.996170
Cl -3.138470 -0.283192 -3.427290
Cl -3.076010 -3.046960 -0.587720
12
Atoms
C -0.394281 0.276013 -0.426662
N -1.165380 -0.685592 -1.253010
H 0.248796 -0.278576 0.260517
H -1.090820 0.897444 0.140826
H 0.215705 0.904875 -1.079130
H -1.783150 -1.324970 -0.698370
H -0.582260 -1.326300 -1.835140
H -1.813140 -0.240924 -1.938260
Pb -2.673220 -2.425720 -3.245070
Cl -0.432576 -3.212520 -2.524200
Cl -2.553140 0.039011 -3.773850
Cl -3.854520 -2.272120 -1.031670
12
Atoms
C -0.394281 0.276013 -0.426662
N -1.165380 -0.685592 -1.253010
H 0.248796 -0.278576 0.260517
H -1.090820 0.897444 0.140826
H 0.215705 0.904875 -1.079130
H -1.783150 -1.324970 -0.698370
H -0.582260 -1.326300 -1.835140
H -1.813140 -0.240924 -1.938260
Pb -2.770740 -2.526570 -3.011810
Cl -0.286635 -2.630630 -3.323440
Cl -3.354400 -0.084863 -3.201480
Cl -3.188890 -3.029710 -0.617879
12
Atoms
C -0.394281 0.276013 -0.426662
N -1.165380 -0.685592 -1.253010
H 0.248796 -0.278576 0.260517
H -1.090820 0.897444 0.140826
H 0.215705 0.904875 -1.079130
H -1.783150 -1.324970 -0.698370
H -0.582260 -1.326300 -1.835140
H -1.813140 -0.240924 -1.938260
Pb -2.685870 -2.566790 -3.057330
Cl -0.258548 -2.287160 -3.564680
Cl -3.595220 -0.220418 -2.834470
Cl -2.675200 -3.375560 -0.697103
12
Atoms
C -0.394281 0.276013 -0.426662
N -1.165380 -0.685592 -1.253010
H 0.248796 -0.278576 0.260517
H -1.090820 0.897444 0.140826
H 0.215705 0.904875 -1.079130
H -1.783150 -1.324970 -0.698370
H -0.582260 -1.326300 -1.835140
H -1.813140 -0.240924 -1.938260
Pb -2.574730 -2.636580 -3.040170
Cl -0.092175 -2.801970 -3.069280
Cl -2.837580 -0.182389 -3.642490
Cl -3.222740 -2.986060 -0.663169
12
Atoms
C -0.394281 0.276013 -0.426662
N -1.165380 -0.685592 -1.253010
H 0.248796 -0.278576 0.260517
H -1.090820 0.897444 0.140826
H 0.215705 0.904875 -1.079130
H -1.783150 -1.324970 -0.698370
H -0.582260 -1.326300 -1.835140
H -1.813140 -0.240924 -1.938260
Pb -2.600620 -2.587420 -3.084480
Cl -0.260571 -1.950850 -3.706950
Cl -3.633060 -0.297755 -2.753490
Cl -2.283610 -3.478800 -0.793359
12
Atoms
C -0.394281 0.276013 -0.426662
N -1.165380 -0.685592 -1.253010
H 0.248796 -0.278576 0.260517
H -1.090820 0.897444 0.140826
H 0.215705 0.904875 -1.079130
H -1.783150 -1.324970 -0.698370
H -0.582260 -1.326300 -1.835140
H -1.813140 -0.240924 -1.938260
Pb -2.586590 -2.502630 -3.150380
Cl -0.161170 -2.134080 -3.606810
Cl -3.543070 -0.179526 -2.915050
Cl -2.596760 -3.394210 -0.821332
12
Atoms
C -0.394281 0.276013 -0.426662
N -1.165380 -0.685592 -1.253010
H 0.248796 -0.278576 0.260517
H -1.090820 0.897444 0.140826
H 0.215705 0.904875 -1.079130
H -1.783150 -1.324970 -0.698370
H -0.582260 -1.326300 -1.835140
H -1.813140 -0.240924 -1.938260
Pb -2.544160 -2.637720 -3.008440
Cl -0.091640 -2.338030 -3.472170
Cl -3.539640 -0.324771 -2.979870
Cl -2.480820 -3.478070 -0.654522
12
Atoms
C -0.394281 0.276013 -0.426662
N -1.165380 -0.685592 -1.253010
H 0.248796 -0.278576 0.260517
H -1.090820 0.897444 0.140826
H 0.215705 0.904875 -1.079130
H -1.783150 -1.324970 -0.698370
H -0.582260 -1.326300 -1.835140
H -1.813140 -0.240924 -1.938260
Pb -2.859750 -2.534590 -2.914500
Cl -0.471979 -2.277910 -3.607000
Cl -3.733560 -0.219555 -2.441240
Cl -2.617790 -3.417950 -0.619091
12
Atoms
C 2.905719 3.576013 2.873338
N 2.134625 2.614408 2.046990
H 3.548796 3.021424 3.560517
H 2.209179 4.197444 3.440826
H 3.515705 4.204875 2.220874
H 1.516852 1.975028 2.601630
H 2.717740 1.973704 1.464858
H 1.486857 3.059076 1.361735
Pb 0.459138 0.131547 0.209487
Cl 2.715957 0.268387 0.089874
Cl -0.167414 2.735046 -0.108798
Cl -0.632542 0.320768 2.851419
12
Atoms
C 2.905719 3.576013 2.873338
N 2.134625 2.614408 2.046990
H 3.548796 3.021424 3.560517
H 2.209179 4.197444 3.440826
H 3.515705 4.204875 2.220874
H 1.516852 1.975028 2.601630
H 2.717740 1.973704 1.464858
H 1.486857 3.059076 1.361735
Pb -0.288257 0.131547 0.209487
Cl 2.846983 0.268387 0.089874
Cl -0.680867 2.735046 -0.108798
Cl 1.042186 0.320768 2.851419
12
Atoms
C -1.021300 -0.518706 -0.367842
N -0.390338 -0.330711 -1.737710
H -0.564090 -1.270090 -2.322690
H 0.603945 -0.185407 -1.720580
H -0.738331 0.372459 -2.242760
H -0.780365 -1.511430 0.041620
H -2.136150 -0.563044 -0.484982
H -0.621884 0.292944 0.263429
Pb -3.121080 -2.579610 -2.429220
Cl -0.679117 -3.251140 -2.416770
Cl -3.482440 -0.096927 -2.512930
Cl -4.286990 -3.571960 -0.547716
12
Atoms
C -0.394281 0.276013 -0.426662
N -1.165380 -0.685592 -1.253010
H 0.248796 -0.278576 0.260517
H -1.090820 0.897444 0.140826
H 0.215705 0.904875 -1.079130
H -1.783150 -1.324970 -0.698370
H -0.582260 -1.326300 -1.835140
H -1.813140 -0.240924 -1.938260
Pb -2.952340 -2.965230 -2.970500
Cl -0.669887 -2.890000 -2.788010
Cl -3.336060 -0.725554 -2.842520
Cl -3.109480 -2.971000 -0.560211
12
Atoms
C -0.743285 -0.760097 -1.315690
N -0.792355 0.411053 -0.422831
H -0.189553 0.259651 0.374234
H -1.739450 0.557781 -0.100655
H -0.482051 1.232710 -0.923558
H -1.121900 -1.649220 -0.807955
H 0.276707 -0.962556 -1.644700
H -1.350580 -0.577428 -2.201820
Pb -2.951850 -2.846840 -2.809090
Cl -0.570757 -3.352070 -3.380400
Cl -3.527150 -0.528350 -3.375630
Cl -3.353410 -3.306920 -0.379140
12
Atoms
C -1.385110 -0.752771 0.175738
N -1.463220 -0.108927 -1.188010
H -0.876222 -0.618127 -1.689150
H -1.088550 0.840649 -1.082030
H -2.426840 0.034223 -1.638530
H -0.317637 -0.752681 0.317252
H -1.769740 -1.771640 0.185047
H -1.908030 -0.212500 0.971785
Pb -3.037870 -2.643230 -2.432890
Cl -0.779700 -3.475570 -1.930650
Cl -2.989410 -0.472532 -3.612720
Cl -4.500540 -2.619200 -0.414598
12
Atoms
C -0.972309 -0.086781 -1.068430
N -0.852621 -0.992690 0.119681
H -1.301400 -0.700870 0.848219
H 0.125724 -1.194750 0.464925
H -1.256140 -1.976770 -0.056578
H -0.737102 0.968694 -0.883871
H -1.907180 -0.178723 -1.631090
H -0.242529 -0.361781 -1.794900
Pb -3.072840 -2.646350 -2.485130
Cl -0.692641 -3.104970 -1.943900
Cl -3.390050 -0.430924 -3.492640
Cl -4.451000 -2.862150 -0.307764
12
Atoms
C -1.997010 0.211755 -0.352967
N -3.369510 0.315374 -0.817973
H -3.767160 1.201060 -0.543056
H -3.935300 -0.428390 -0.388802
H -3.502710 0.219031 -1.837690
H -2.150310 0.203037 0.701472
H -1.438550 1.097060 -0.633238
H -1.601460 -0.713550 -0.679026
Pb -2.922480 -2.607230 -2.386460
Cl -1.336670 -4.514160 -2.459160
Cl -2.355990 -0.604607 -3.547640
Cl -4.062910 -2.269120 -0.177029
12
Atoms
C -0.310893 -0.745685 -1.457430
N -0.971488 0.393186 -0.795423
H -0.778742 0.380655 0.196202
H -1.972690 0.326143 -0.944360
H -0.640760 1.261720 -1.191650
H -0.634781 -1.686880 -1.011230
H 0.773540 -0.678849 -1.363890
H -0.565213 -0.766879 -2.518220
Pb -3.155990 -2.539120 -2.424290
Cl -0.817626 -3.182780 -2.983350
Cl -3.353030 -0.185046 -1.827420
Cl -4.096520 -4.046140 -0.688540
12
Atoms
C -0.310057 -0.745488 -1.460220
N -0.977403 0.382782 -0.786926
H -0.781482 0.363763 0.204031
H -1.978410 0.309634 -0.933634
H -0.654529 1.257010 -1.177110
H -0.622933 -1.692460 -1.018410
H 0.774207 -0.669295 -1.372040
H -0.569928 -0.762153 -2.519770
Pb -3.155150 -2.538180 -2.425360
Cl -0.817514 -3.182950 -2.986010
Cl -3.352850 -0.181151 -1.840520
Cl -4.090790 -4.036740 -0.679639
12
Atoms
C -3.449170 0.518443 -0.485748
N -2.927880 1.616260 -1.351820
H -3.743300 2.063110 -1.773140
H -2.410870 1.165080 -2.100950
H -2.357470 2.279140 -0.861231
H -4.111130 -0.194706 -1.028500
H -3.924520 0.802977 0.459927
H -2.608900 0.015295 -0.071594
Pb -2.913900 -2.654000 -2.362630
Cl -1.742880 -4.767790 -2.990980
Cl -2.069420 -0.437636 -3.065360
Cl -3.597260 -2.656700 0.045921
12
Atoms
C -0.306754 -0.743399 -1.466090
N -0.984515 0.369242 -0.777189
H -0.782503 0.342425 0.212556
H -1.985250 0.285506 -0.919071
H -0.675140 1.251540 -1.160100
H -0.599882 -1.698270 -1.027630
H 0.777189 -0.650863 -1.389330
H -0.577998 -0.756643 -2.522980
Pb -3.154000 -2.536460 -2.426050
Cl -0.816549 -3.183670 -2.984870
Cl -3.352820 -0.176436 -1.855590
Cl -4.087400 -4.025250 -0.670901
12
Atoms
C -1.096310 0.999642 -0.993783
N -2.181510 0.226239 -0.438169
H -1.812840 -0.425878 0.183245
H -2.814980 -0.172774 -1.128090
H -2.691880 0.919194 0.227898
H -0.299464 0.473924 -1.498750
H -0.754434 1.640310 -0.239817
H -1.424520 1.709060 -1.740270
Pb -3.026790 -2.689470 -2.451860
Cl -1.102050 -4.138870 -2.020700
Cl -2.477080 -0.446299 -3.240110
Cl -4.529100 -2.626680 -0.450360
12
Atoms
C -0.350735 0.477716 -1.303650
N -0.560900 -0.264215 -2.637980
H -0.321965 0.316550 -3.492030
H -1.549820 -0.353103 -2.857670
H -0.131604 -1.069140 -2.656630
H -1.071980 1.316670 -1.312580
H 0.675011 0.861695 -1.265050
H -0.619776 -0.281935 -0.528256
Pb -3.093440 -2.560310 -2.295120
Cl -0.662439 -3.196040 -2.306970
Cl -3.418460 -0.211765 -1.745800
Cl -4.723740 -4.093110 -1.375100
12
Atoms
C -0.825143 1.161160 -1.743980
N -0.615877 -0.325527 -1.417870
H -1.450530 -0.622084 -0.856567
H 0.267721 -0.584441 -0.926534
H -0.449599 -0.788554 -2.298700
H -1.069750 1.598270 -0.754533
H -1.659280 1.230840 -2.457900
H 0.083243 1.518980 -2.229010
Pb -3.112040 -2.543290 -2.391720
Cl -0.753440 -3.501800 -2.641850
Cl -3.188650 -0.276280 -1.664120
Cl -4.535470 -4.074190 -0.963729
12
Atoms
C -0.279328 -0.384649 -0.079983
N -1.048630 -0.036056 -1.324620
H -2.118620 -0.350815 -1.320720
H -0.560575 -0.320617 -2.166160
H -1.199600 0.863657 -1.397080
H -0.432378 -1.373820 0.423337
H -0.608116 0.165129 0.791476
H 0.817980 -0.276366 -0.251427
Pb -3.147950 -2.595970 -2.465570
Cl -0.664799 -3.307300 -2.463930
Cl -3.391660 -0.192978 -2.657970
Cl -4.230100 -3.530730 -0.476244
12
Atoms
C -2.225900 0.846158 -0.505886
N -3.487090 0.701699 -1.150080
H -3.892240 -0.058989 -0.720440
H -3.270800 0.506891 -2.103500
H -3.976610 1.611420 -1.065050
H -1.673370 0.088937 -0.973330
H -2.191850 0.824603 0.570625
H -1.626640 1.636340 -0.837816
Pb -2.907880 -2.637500 -2.339260
Cl -1.513050 -4.668060 -2.763240
Cl -2.177350 -0.616631 -3.338730
Cl -4.019780 -2.380200 -0.125013
12
Atoms
C -1.578450 0.495269 -0.311252
N -2.936890 0.725485 -0.680071
H -3.391900 -0.111477 -0.220958
H -2.976600 0.526799 -1.655590
H -3.260810 1.594880 -0.441148
H -1.294960 -0.444083 -0.807128
H -1.449430 0.516402 0.773582
H -0.845942 1.075250 -0.879260
Pb -2.909370 -2.656850 -2.331330
Cl -1.355360 -4.460870 -2.750550
Cl -2.339330 -0.494115 -3.357110
Cl -4.540780 -2.445900 -0.471451
12
Atoms
C -0.394281 0.276013 -0.426662
N -1.165380 -0.685592 -1.253010
H 0.248796 -0.278576 0.260517
H -1.090820 0.897444 0.140826
H 0.215705 0.904875 -1.079130
H -1.783150 -1.324970 -0.698370
H -0.582260 -1.326300 -1.835140
H -1.813140 -0.240924 -1.938260
Pb -2.707690 -4.127050 -2.682500
Cl -1.812880 -3.043980 -4.837020
Cl -2.803490 1.096080 -2.976840
Cl -4.821070 -3.137350 -1.600920
12
Atoms
C -2.717250 0.395654 0.059824
N -2.453250 0.960148 -1.298120
H -1.531830 1.167990 -1.597120
H -2.913020 1.817080 -1.514510
H -2.773830 0.277444 -1.975620
H -2.158010 0.848039 0.877707
H -2.425030 -0.628774 -0.129479
H -3.774310 0.449954 0.204630
Pb -2.901940 -2.653980 -2.312160
Cl -1.272750 -4.408240 -2.777520
Cl -2.598680 -0.604572 -3.575750
Cl -4.145640 -2.485880 -0.193719
12
Atoms
C -0.394281 0.276013 -0.426662
N -1.165380 -0.685592 -1.253010
H 0.248796 -0.278576 0.260517
H -1.090820 0.897444 0.140826
H 0.215705 0.904875 -1.079130
H -1.783150 -1.324970 -0.698370
H -0.582260 -1.326300 -1.835140
H -1.813140 -0.240924 -1.938260
Pb -2.742690 -4.042960 -2.712530
Cl -1.550790 -3.203310 -4.832550
Cl -2.764890 1.149980 -2.941600
Cl -4.798510 -3.319440 -1.344990
12
Atoms
C -0.394281 0.276013 -0.426662
N -1.165380 -0.685592 -1.253010
H 0.248796 -0.278576 0.260517
H -1.090820 0.897444 0.140826
H 0.215705 0.904875 -1.079130
H -1.783150 -1.324970 -0.698370
H -0.582260 -1.326300 -1.835140
H -1.813140 -0.240924 -1.938260
Pb -2.753470 -3.989520 -2.720960
Cl -1.438120 -3.254580 -4.806830
Cl -2.725660 1.202960 -2.902560
Cl -4.769080 -3.387440 -1.239150
12
Atoms
C -0.760190 0.909341 -1.086440
N -1.977690 1.456660 -1.577970
H -2.691090 1.445120 -0.786035
H -2.304120 0.990955 -2.421840
H -1.868850 2.367110 -1.753930
H -0.842687 -0.183835 -0.878458
H -0.526251 1.481800 -0.138118
H -0.028525 0.915195 -1.900720
Pb -2.874560 -2.630780 -2.008110
Cl -1.385350 -4.356700 -3.237970
Cl -2.704660 -0.420993 -3.104400
Cl -5.146600 -3.314820 -1.376770
12
Atoms
C -0.394281 0.276013 -0.426662
N -1.165380 -0.685592 -1.253010
H 0.248796 -0.278576 0.260517
H -1.090820 0.897444 0.140826
H 0.215705 0.904875 -1.079130
H -1.783150 -1.324970 -0.698370
H -0.582260 -1.326300 -1.835140
H -1.813140 -0.240924 -1.938260
Pb -2.757730 -3.937420 -2.723380
Cl -1.356900 -3.274860 -4.777770
Cl -2.686020 1.254130 -2.860480
Cl -4.741620 -3.425430 -1.166610
12
Atoms
C -2.121160 0.886986 -0.590359
N -3.445760 1.105990 -1.090560
H -3.504960 2.045880 -1.384950
H -4.196010 0.812442 -0.481895
H -3.401180 0.572738 -1.978640
H -1.726460 1.720880 -0.051973
H -1.560330 0.882414 -1.471240
H -2.224780 -0.013251 -0.005213
Pb -2.843620 -2.645810 -2.279160
Cl -1.551760 -4.674380 -2.868800
Cl -2.416620 -0.584994 -3.407890
Cl -4.169900 -2.570710 -0.289631
12
Atoms
C -0.394281 0.276013 -0.426662
N -1.165380 -0.685592 -1.253010
H 0.248796 -0.278576 0.260517
H -1.090820 0.897444 0.140826
H 0.215705 0.904875 -1.079130
H -1.783150 -1.324970 -0.698370
H -0.582260 -1.326300 -1.835140
H -1.813140 -0.240924 -1.938260
Pb -2.758310 -3.881810 -2.722090
Cl -1.287720 -3.274240 -4.744610
Cl -2.642220 1.307920 -2.810960
Cl -4.715560 -3.446470 -1.109150
12
Atoms
C -0.394281 0.276013 -0.426662
N -1.165380 -0.685592 -1.253010
H 0.248796 -0.278576 0.260517
H -1.090820 0.897444 0.140826
H 0.215705 0.904875 -1.079130
H -1.783150 -1.324970 -0.698370
H -0.582260 -1.326300 -1.835140
H -1.813140 -0.240924 -1.938260
Pb -2.756200 -3.818700 -2.717490
Cl -1.221100 -3.252780 -4.704020
Cl -2.590660 1.367590 -2.748500
Cl -4.690390 -3.454960 -1.059510
12
Atoms
C -0.328561 -0.015159 -1.840040
N 0.062558 -0.610120 -0.489830
H -0.495321 -1.286060 -0.318890
H -0.165701 0.166853 0.209305
H 1.138090 -0.877757 -0.534442
H -1.200960 0.536846 -1.646990
H -0.331812 -0.779165 -2.642290
H 0.409249 0.749679 -2.122780
Pb -3.109580 -2.561810 -2.339170
Cl -0.787446 -3.183300 -1.664170
Cl -3.393050 -0.360085 -3.365130
Cl -4.851240 -3.580060 -0.952145
12
Atoms
C -2.613000 0.343402 -0.426019
N -3.296050 0.893947 -1.587370
H -4.087790 1.450340 -1.174450
H -3.571960 0.098765 -2.144670
H -2.702030 1.500820 -2.070790
H -3.009440 -0.454036 0.152965
H -2.187450 1.186920 0.117775
H -1.737600 -0.233482 -0.748060
Pb -2.890520 -2.580660 -2.297180
Cl -1.692230 -4.576990 -2.981420
Cl -2.029740 -0.514749 -3.270250
Cl -4.015120 -2.780900 -0.054578
12
Atoms
C -0.394281 0.276013 -0.426662
N -1.165380 -0.685592 -1.253010
H 0.248796 -0.278576 0.260517
H -1.090820 0.897444 0.140826
H 0.215705 0.904875 -1.079130
H -1.783150 -1.324970 -0.698370
H -0.582260 -1.326300 -1.835140
H -1.813140 -0.240924 -1.938260
Pb -2.751750 -3.741890 -2.708770
Cl -1.147520 -3.202350 -4.647720
Cl -2.525310 1.437540 -2.662590
Cl -4.666110 -3.452490 -1.013410
12
Atoms
C -0.719476 0.723500 -0.861158
N -1.008380 1.472390 -2.093800
H -1.046130 2.537930 -1.894080
H -1.906610 1.206510 -2.564710
H -0.280987 1.300100 -2.635670
H -1.421670 0.965138 0.001940
H 0.293728 0.949756 -0.507504
H -0.840322 -0.353276 -1.150540
Pb -3.085260 -2.671110 -2.369510
Cl -0.872628 -3.929500 -2.396310
Cl -2.832030 -0.258896 -2.175880
Cl -4.783870 -3.599810 -0.881420
12
Atoms
C -0.394281 0.276013 -0.426662
N -1.165380 -0.685592 -1.253010
H 0.248796 -0.278576 0.260517
H -1.090820 0.897444 0.140826
H 0.215705 0.904875 -1.079130
H -1.783150 -1.324970 -0.698370
H -0.582260 -1.326300 -1.835140
H -1.813140 -0.240924 -1.938260
Pb -2.744020 -3.485210 -2.690150
Cl -1.027100 -3.084180 -4.567750
Cl -2.783950 1.210650 -2.838520
Cl -4.650590 -3.437880 -0.961726
12
Atoms
C -3.353160 0.471060 -0.715749
N -2.136600 1.103760 -1.408060
H -2.181230 2.107870 -1.469810
H -2.157320 0.755496 -2.351200
H -1.248910 0.864355 -1.035650
H -4.280310 0.655423 -1.272620
H -3.475570 0.863421 0.245545
H -3.219710 -0.558252 -0.356821
Pb -2.907190 -2.637050 -2.273560
Cl -1.410560 -4.452810 -3.023820
Cl -2.433910 -0.500496 -3.321160
Cl -4.023460 -2.748220 -0.061459
12
Atoms
C -0.250268 -0.167812 -2.280710
N 0.452847 -1.412560 -2.193830
H -0.029783 -2.101880 -2.390040
H 0.788379 -1.628820 -1.214850
H 1.365910 -1.417280 -2.755480
H -1.027570 -0.015905 -1.456280
H -0.939815 -0.174784 -3.078340
H 0.440022 0.616522 -2.280980
Pb -3.051080 -2.492420 -2.293620
Cl -1.164720 -2.724520 -0.637424
Cl -3.559820 -0.258397 -2.908690
Cl -4.865480 -4.085390 -1.704650
12
Atoms
C -0.955246 0.098183 -0.840852
N -0.550557 -0.648203 -2.082840
H -1.055120 -1.641790 -2.117870
H 0.419408 -0.877591 -1.994240
H -0.675193 -0.135699 -2.832870
H -0.919121 -0.613030 -0.053443
H -2.048570 0.317965 -0.620484
H -0.287834 0.997611 -0.698107
Pb -3.100580 -2.562310 -2.347110
Cl -0.710464 -3.281860 -2.337270
Cl -3.292330 -0.074344 -2.371420
Cl -4.515310 -3.774560 -0.899481
12
Atoms
C 2.905719 3.576013 2.873338
N 2.134625 2.614408 2.046990
H 3.548796 3.021424 3.560517
H 2.209179 4.197444 3.440826
H 3.515705 4.204875 2.220874
H 1.516852 1.975028 2.601630
H 2.717740 1.973704 1.464858
H 1.486857 3.059076 1.361735
Pb 0.837185 0.131547 0.209487
Cl 3.405529 0.268387 0.089874
Cl -2.768449 2.735046 -0.108798
Cl 1.310241 0.320768 2.851419
12
Atoms
C 2.905719 3.576013 2.873338
N 2.134625 2.614408 2.046990
H 3.548796 3.021424 3.560517
H 2.209179 4.197444 3.440826
H 3.515705 4.204875 2.220874
H 1.516852 1.975028 2.601630
H 2.717740 1.973704 1.464858
H 1.486857 3.059076 1.361735
Pb 0.473460 0.131547 0.209487
Cl 2.339292 0.268387 0.089874
Cl 0.077890 2.735046 -0.108798
Cl 0.157014 0.320768 2.851419
12
Atoms
C 2.905719 3.576013 2.873338
N 2.134625 2.614408 2.046990
H 3.548796 3.021424 3.560517
H 2.209179 4.197444 3.440826
H 3.515705 4.204875 2.220874
H 1.516852 1.975028 2.601630
H 2.717740 1.973704 1.464858
H 1.486857 3.059076 1.361735
Pb -1.181988 0.131547 0.209487
Cl 2.230773 0.268387 0.089874
Cl 1.111769 2.735046 -0.108798
Cl 0.209916 0.320768 2.851419
12
Atoms
C 2.905719 3.576013 2.873338
N 2.134625 2.614408 2.046990
H 3.548796 3.021424 3.560517
H 2.209179 4.197444 3.440826
H 3.515705 4.204875 2.220874
H 1.516852 1.975028 2.601630
H 2.717740 1.973704 1.464858
H 1.486857 3.059076 1.361735
Pb -0.353845 0.131547 0.209487
Cl 3.101655 0.268387 0.089874
Cl -2.268480 2.735046 -0.108798
Cl 2.485334 0.320768 2.851419
12
Atoms
C 2.905719 3.576013 2.873338
N 2.134625 2.614408 2.046990
H 3.548796 3.021424 3.560517
H 2.209179 4.197444 3.440826
H 3.515705 4.204875 2.220874
H 1.516852 1.975028 2.601630
H 2.717740 1.973704 1.464858
H 1.486857 3.059076 1.361735
Pb 0.687904 0.131547 0.209487
Cl 2.426783 0.268387 0.089874
Cl -0.358321 2.735046 -0.108798
Cl 0.286792 0.320768 2.851419
12
Atoms
C -0.394281 0.276013 -0.426662
N -1.165380 -0.685592 -1.253010
H 0.248796 -0.278576 0.260517
H -1.090820 0.897444 0.140826
H 0.215705 0.904875 -1.079130
H -1.783150 -1.324970 -0.698370
H -0.582260 -1.326300 -1.835140
H -1.813140 -0.240924 -1.938260
Pb -2.740180 -2.770760 -3.034480
Cl -0.920502 -3.065040 -1.370100
Cl -3.425370 -0.928022 -1.406920
Cl -3.054370 -2.929260 -0.594574
12
Atoms
C -0.394281 0.276013 -0.426662
N -1.165380 -0.685592 -1.253010
H 0.248796 -0.278576 0.260517
H -1.090820 0.897444 0.140826
H 0.215705 0.904875 -1.079130
H -1.783150 -1.324970 -0.698370
H -0.582260 -1.326300 -1.835140
H -1.813140 -0.240924 -1.938260
Pb -2.758930 -2.774190 -3.014130
Cl -0.913606 -3.065070 -1.364940
Cl -3.426310 -0.920284 -1.398330
Cl -2.697310 -3.147860 -0.564565
12
Atoms
C -0.394281 0.276013 -0.426662
N -1.165380 -0.685592 -1.253010
H 0.248796 -0.278576 0.260517
H -1.090820 0.897444 0.140826
H 0.215705 0.904875 -1.079130
H -1.783150 -1.324970 -0.698370
H -0.582260 -1.326300 -1.835140
H -1.813140 -0.240924 -1.938260
Pb -2.742870 -2.774520 -3.031780
Cl -0.915391 -3.065780 -1.369550
Cl -3.425430 -0.926339 -1.405030
Cl -2.642310 -3.182350 -0.599195
12
Atoms
C 2.905719 3.576013 2.873338
N 2.134625 2.614408 2.046990
H 3.548796 3.021424 3.560517
H 2.209179 4.197444 3.440826
H 3.515705 4.204875 2.220874
H 1.516852 1.975028 2.601630
H 2.717740 1.973704 1.464858
H 1.486857 3.059076 1.361735
Pb 0.811826 0.131547 0.209487
Cl 2.516546 0.268387 0.089874
Cl -1.525344 2.735046 -0.108798
Cl 0.302947 0.320768 2.851419
