1
Atoms
Cs 2.803343 3.093521 2.503808
1
Atoms
Cs 2.853422 3.252548 2.467570
1
Atoms
Cs 2.662626 3.216041 2.514581
1
Atoms
Cs 2.854600 3.266541 2.497085
1
Atoms
Cs 2.663931 3.099687 2.542384
1
Atoms
Cs 2.789383 3.094822 2.532548
1
Atoms
Cs 2.818654 3.190034 2.286420
1
Atoms
Cs 2.691695 3.096473 2.372243
1
Atoms
Cs 2.725482 3.194350 2.330792
1
Atoms
Cs 2.559356 3.031347 2.247440
1
Atoms
Cs 2.559356 3.031347 2.247440
1
Atoms
Cs 2.839478 3.060329 2.366591
4
Atoms
Pb 0.408419 0.427797 0.434273
Cl 2.962167 0.343918 0.064478
Cl -0.045853 2.916970 -0.079540
Cl 0.322410 0.472158 3.014160
4
Atoms
Pb 0.747111 0.330785 0.749545
Cl 2.534351 1.007253 2.580738
Cl 1.670843 1.992192 -1.064694
Cl -1.482066 1.513151 1.512116
4
Atoms
Pb 1.361952 0.760627 0.779324
Cl -0.890403 -0.266062 0.165377
Cl 0.895595 1.189151 3.328832
Cl 1.211279 3.048344 -0.144333
4
Atoms
Pb 1.087774 1.447061 0.632062
Cl 2.701021 -0.298190 -0.173375
Cl 0.751194 0.546221 3.159753
Cl -1.187137 0.546702 -0.188795
4
Atoms
Pb 1.216509 0.848027 1.188103
Cl 1.770612 3.068755 0.127558
Cl 0.946297 -0.855508 -0.899552
Cl -1.214838 1.056417 1.740142
4
Atoms
Pb 0.296160 0.288730 0.340033
Cl 2.919739 0.429641 0.132078
Cl 0.042340 2.889007 0.000916
Cl 0.388905 0.553465 2.960344
4
Atoms
Pb 0.163902 0.936354 0.677960
Cl 1.925548 -1.076973 -0.013798
Cl 1.641617 2.642290 -0.298618
Cl 1.208371 0.959203 3.169796
4
Atoms
Pb 0.741736 0.399652 1.287127
Cl 1.976805 0.135687 -1.224275
Cl -1.293035 1.715163 0.124774
Cl 1.952286 2.574249 1.894733
4
Atoms
Pb 0.448374 1.331609 0.376510
Cl 3.006259 1.287111 0.394839
Cl 0.321217 1.139591 2.996021
Cl 0.456153 -1.523753 0.138753
5
Atoms
Pb 0.304661 0.300955 0.345748
Cl 2.889561 0.438917 0.150137
Cl 0.060204 2.864983 0.020179
Cl 0.404872 0.564213 2.926369
Cs 2.547201 3.023124 2.238377
5
Atoms
Pb 0.296160 0.288730 0.340033
Cl 2.919739 0.429641 0.132078
Cl 0.042340 2.889007 0.000916
Cl 0.388905 0.553465 2.960344
Cs 2.559356 3.031347 2.247440
5
Atoms
Pb 0.451004 2.380944 2.668132
Cl 0.445353 3.079904 0.020048
Cl 3.057210 2.253691 2.667862
Cl 0.333870 -0.122519 1.734747
Cs 2.526897 0.704919 -0.359320
5
Atoms
Pb 0.048063 2.821629 1.121469
Cl 0.199256 0.905817 -0.357036
Cl 2.553972 3.671112 1.051589
Cl 0.619137 1.607165 3.311411
Cs 3.128888 0.414978 1.508001
5
Atoms
Pb 3.096614 1.619481 0.738904
Cl 2.441462 3.220921 2.660148
Cl 1.215141 2.163766 -0.656050
Cl 1.787236 -0.384551 1.955213
Cs -0.702876 1.934587 2.062302
5
Atoms
Pb 1.997351 -0.139516 1.297594
Cl 3.724376 1.760990 1.548628
Cl 0.716837 1.240171 -0.868285
Cl 0.377818 0.860477 3.064275
Cs 1.122274 3.784730 1.490070
5
Atoms
Pb 0.396799 0.331790 0.410404
Cl 2.924175 0.125131 0.954679
Cl 0.647926 2.786357 -0.533777
Cl -0.147512 1.250940 2.806294
Cs 2.832554 3.426708 2.557933
5
Atoms
Pb -0.341425 1.828253 1.860403
Cl 0.497383 0.956515 -0.661093
Cl 1.057325 3.985505 1.635107
Cl 1.455771 0.257094 3.255028
Cs 3.560455 1.639161 0.834500
5
Atoms
Pb 0.464136 0.319578 0.328628
Cl 3.041740 0.647210 0.680399
Cl 0.145745 2.885157 0.125650
Cl -0.007973 0.472619 2.898531
Cs 2.920254 3.430263 2.476807
5
Atoms
Pb 0.428797 0.444419 0.249211
Cl 2.976440 0.160375 0.829521
Cl 0.621163 3.004149 0.187100
Cl -0.253194 0.487620 2.770060
Cs 2.889551 3.391843 2.490946
5
Atoms
Pb 0.231077 0.335559 0.515221
Cl 2.496834 0.571366 -0.674142
Cl -0.126271 2.922798 0.489395
Cl 1.450883 0.498173 2.807505
Cs 2.854131 3.411763 2.548635
5
Atoms
Pb 0.382267 0.308205 0.328660
Cl 2.928204 0.259068 0.614816
Cl 0.448402 2.990762 -0.119149
Cl 0.005776 0.830718 2.920008
Cs 2.899718 3.383644 2.485147
5
Atoms
Pb 0.480533 0.250409 0.377517
Cl 2.735536 1.341519 -0.129731
Cl -0.623792 2.590685 0.573894
Cl 0.960050 0.202220 2.883170
Cs 2.879941 3.437137 2.529010
5
Atoms
Pb 0.312233 0.265558 0.532066
Cl 2.853905 0.127069 0.848643
Cl 0.643144 2.534308 -0.824847
Cl 0.089024 1.683747 2.769349
Cs 2.908838 3.457431 2.528602
5
Atoms
Pb 0.602815 0.169989 0.443616
Cl 2.969370 1.315844 0.390241
Cl -0.630042 2.310149 -0.417852
Cl 0.125334 0.945390 2.925138
Cs 2.938616 3.413457 2.499200
5
Atoms
Pb 1.385297 0.055312 1.866619
Cl -0.270363 1.592921 2.344643
Cl 3.496915 1.280881 2.343441
Cl 1.429327 0.852671 -0.695677
Cs 1.715400 3.816867 0.880111
5
Atoms
Pb 0.274421 0.470510 0.386916
Cl 2.902189 0.301502 -0.010169
Cl 0.387176 3.084387 0.519719
Cl 0.489395 0.198439 2.902129
Cs 3.133399 3.717657 2.746265
5
Atoms
Pb 0.343067 0.431878 0.264084
Cl 2.972870 0.677938 0.171426
Cl 0.074123 2.934059 0.536082
Cl 0.448435 0.101634 2.840296
Cs 3.132040 3.708671 2.779269
5
Atoms
Pb 0.450075 0.238994 0.612511
Cl 2.886320 0.695906 0.053134
Cl -0.280979 2.554627 -0.426462
Cl 0.634200 1.207544 2.988453
Cs 3.153543 3.754323 2.801752
5
Atoms
Pb 0.346181 0.236505 0.546568
Cl 2.922982 0.489081 -0.009022
Cl -0.168883 2.622060 -0.357330
Cl 0.660293 1.166703 3.020107
Cs 3.189005 3.744162 2.730506
5
Atoms
Pb 0.343781 0.361330 0.399011
Cl 2.751704 -0.284858 0.959153
Cl 0.980958 2.695729 -0.496451
Cl -0.033535 1.344511 2.776488
Cs 3.146039 3.758284 2.789296
5
Atoms
Pb 0.355812 0.297124 0.544159
Cl 2.521366 0.848943 -0.729589
Cl -0.288869 2.869202 0.761561
Cl 1.514829 0.350971 2.769890
Cs 3.203817 3.747184 2.757956
5
Atoms
Pb 0.514587 0.346659 0.236877
Cl 3.015449 1.225943 0.728940
Cl -0.423836 2.871548 0.418891
Cl 0.110844 -0.054802 2.766532
Cs 2.919337 3.398421 2.493431
5
Atoms
Pb 0.137954 0.517410 0.360549
Cl 2.668563 -0.373045 -0.028915
Cl 1.000832 3.033411 0.242914
Cl 0.557014 0.492554 3.062233
Cs 3.146248 3.716510 2.816874
5
Atoms
Pb 0.404581 0.525701 0.211128
Cl 2.936733 0.375859 0.452309
Cl 0.418434 3.069081 0.805198
Cl 0.038061 -0.162558 2.707900
Cs 3.425465 4.058882 3.008625
5
Atoms
Pb 0.227327 0.584203 0.337280
Cl 2.573714 -0.169516 -0.196501
Cl 0.881037 3.048208 0.671199
Cl 0.604609 0.094810 2.941054
Cs 3.412498 4.131419 3.021702
5
Atoms
Pb 0.542014 0.392129 0.180487
Cl 3.042684 1.097817 0.729105
Cl -0.325237 2.857235 0.611360
Cl 0.052514 -0.204566 2.724695
Cs 3.463088 4.053845 2.997505
5
Atoms
Pb 0.447725 0.295704 0.427748
Cl 3.036957 0.617115 0.488592
Cl -0.018737 2.764993 -0.264783
Cl 0.269036 0.878054 2.932950
Cs 3.397305 4.110219 3.044526
5
Atoms
Pb 0.177730 0.446159 0.544080
Cl 2.471922 0.256221 -0.709638
Cl 0.335911 3.050120 0.509042
Cl 1.428674 0.325044 2.879370
Cs 3.469966 4.099042 3.038378
5
Atoms
Pb 0.249181 0.438646 0.358755
Cl 2.703042 -0.409442 0.601561
Cl 1.172844 2.938707 -0.186370
Cl 0.084443 1.006670 2.920421
Cs 3.433981 4.090045 3.003166
5
Atoms
Pb 0.270034 0.341787 0.417111
Cl 2.623714 0.954565 -0.619316
Cl -0.265088 2.890046 0.825109
Cl 1.269117 0.055690 2.806306
Cs 3.442787 4.101450 3.005204
5
Atoms
Pb 0.429175 0.299382 0.370769
Cl 3.042103 0.374126 0.822424
Cl 0.395210 2.945382 -0.172003
Cl -0.142455 0.669768 2.875379
Cs 3.408698 4.127166 3.056487
5
Atoms
Pb 0.425524 0.234920 0.649885
Cl 2.659135 0.903173 -0.521629
Cl -0.678535 2.528235 -0.091366
Cl 1.161592 1.193124 2.916910
Cs 3.701214 4.432360 3.219490
5
Atoms
Pb 0.548729 0.360226 0.226443
Cl 3.068997 0.975322 0.858939
Cl -0.135814 2.887130 0.329121
Cl -0.122190 0.055695 2.744286
Cs 3.744504 4.477417 3.205223
5
Atoms
Pb 0.343352 0.374763 0.442622
Cl 2.941083 0.409401 0.174864
Cl 0.155494 2.884305 0.026233
Cl 0.555343 0.672598 3.014276
Cs 3.765131 4.394116 3.242676
5
Atoms
Pb 0.441128 0.397747 0.258369
Cl 2.960568 0.259935 0.876097
Cl 0.525427 2.977691 0.172783
Cl -0.173783 0.521255 2.744954
Cs 3.684975 4.472059 3.279305
5
Atoms
Pb 0.397151 0.330801 0.419425
Cl 2.942151 0.461427 0.361745
Cl 0.068272 2.784079 -0.343391
Cl 0.325981 1.011789 2.991292
Cs 3.740052 4.461570 3.213594
5
Atoms
Pb 0.397268 0.343728 0.337556
Cl 2.975260 0.232485 0.618638
Cl 0.466342 2.993298 -0.073137
Cl 0.002648 0.766992 2.860857
Cs 3.761910 4.432099 3.229957
5
Atoms
Pb 0.486925 0.231189 0.384745
Cl 2.946612 1.145320 0.253045
Cl -0.497623 2.683265 0.134917
Cl 0.509594 0.468451 2.919665
Cs 3.731145 4.478162 3.240117
5
Atoms
Pb 0.313373 0.555391 0.309564
Cl 2.838906 0.443034 -0.049250
Cl 0.339666 3.089794 0.987881
Cl 0.486416 -0.282456 2.684106
Cs 3.974079 4.799239 3.457622
5
Atoms
Pb 0.536462 0.477770 0.256327
Cl 2.970351 0.906749 0.819021
Cl -0.136094 2.899160 0.572307
Cl -0.082186 -0.117250 2.699836
Cs 3.968495 4.762820 3.478926
5
Atoms
Pb 0.239499 0.510035 0.422878
Cl 2.672267 0.760089 -0.546043
Cl 0.175482 3.032897 1.075288
Cl 1.185891 -0.211234 2.738145
Cs 4.027243 4.753876 3.437163
5
Atoms
Pb 0.379744 0.298172 0.507203
Cl 2.998777 0.377217 0.961895
Cl 0.487310 2.516103 -0.715098
Cl -0.133924 1.464325 2.749162
Cs 4.004377 4.736500 3.495835
5
Atoms
Pb 0.378243 0.361657 0.322554
Cl 2.880785 0.007620 1.047943
Cl 0.796226 2.876473 -0.167587
Cl -0.279857 0.836238 2.725349
Cs 4.017402 4.778344 3.466598
5
Atoms
Pb 0.228437 0.400960 0.373763
Cl 2.758375 -0.265398 0.518222
Cl 0.960989 2.799805 -0.305124
Cl 0.266331 1.114163 2.879902
Cs 4.020754 4.734211 3.431955
5
Atoms
Pb 0.357003 0.416912 0.305517
Cl 2.735032 1.048787 -0.402965
Cl -0.251637 2.920221 1.008967
Cl 1.090506 -0.176882 2.859263
Cs 4.024499 4.760928 3.478723
5
Atoms
Pb 0.326140 0.273853 0.487130
Cl 2.848570 0.617112 -0.315348
Cl -0.266130 2.840843 0.073934
Cl 0.987065 0.815465 3.013516
Cs 3.978503 4.815578 3.479426
